  15
 
 C          1.0201930778        0.0215844779       -0.0964058576
 C          2.5363132003        0.1517802241       -0.0189395931
 C          2.9578624488        1.4051919032        0.7231418101
 O          2.1980489344        2.2136239854        1.2010753010
 N          4.3286737846        1.5436711146        0.8061844034
 C          4.9655471118        2.5999952182        1.4309171987
 N          6.1996203961        2.7834685998        1.5403577802
 H          0.7443658578       -0.8822677013       -0.6333288209
 H          0.5950795616        0.8812180398       -0.6086319181
 H          0.5947767506       -0.0167671468        0.9033883369
 H          2.9640350861        0.1883782541       -1.0247451630
 H          2.9636619442       -0.7125816220        0.4969971228
 H          4.9131221495        0.8303851313        0.3848307358
 H          4.2812155772        3.3240557419        1.8580100874
 H          6.7856041192        2.0648037796        1.1162985764
