 xtb: 6.7.1 (edcfbbe)
          02202521433D

 18 22  0     0  0            999 V2000
    5.4241    1.7760   -1.6866 C   0  0  0  0  0  0  0  0  0  0  0  0
    4.3461    0.8460   -2.1362 C   0  0  0  0  0  0  0  0  0  0  0  0
    4.1845    0.2596   -3.5625 C   0  0  0  0  0  0  0  0  0  0  0  0
    3.6922   -1.1114   -3.1162 C   0  0  0  0  0  0  0  0  0  0  0  0
    2.1786   -0.9319   -3.1425 C   0  0  0  0  0  0  0  0  0  0  0  0
    2.1889    0.4164   -2.4312 C   0  0  0  0  0  0  0  0  0  0  0  0
    3.2506    1.2049   -3.0828 N   0  0  0  0  0  0  0  0  0  0  0  0
    3.0987    0.2817   -1.1919 C   0  0  0  0  0  0  0  0  0  0  0  0
    4.0525   -0.6853   -1.6816 C   0  0  0  0  0  0  0  0  0  0  0  0
    5.4312    2.6502   -2.3352 H   0  0  0  0  0  0  0  0  0  0  0  0
    6.3999    1.2919   -1.7313 H   0  0  0  0  0  0  0  0  0  0  0  0
    5.2358    2.0999   -0.6651 H   0  0  0  0  0  0  0  0  0  0  0  0
    4.8701    0.5133   -4.3496 H   0  0  0  0  0  0  0  0  0  0  0  0
    4.1336   -2.0012   -3.5469 H   0  0  0  0  0  0  0  0  0  0  0  0
    1.6513   -1.6919   -2.5671 H   0  0  0  0  0  0  0  0  0  0  0  0
    1.7739   -0.8733   -4.1538 H   0  0  0  0  0  0  0  0  0  0  0  0
    1.2546    0.9599   -2.3398 H   0  0  0  0  0  0  0  0  0  0  0  0
    4.8529   -1.1265   -1.1137 H   0  0  0  0  0  0  0  0  0  0  0  0
  1  2  1  0  0  0  0
  2  3  1  0  0  0  0
  3  4  1  0  0  0  0
  4  5  1  0  0  0  0
  5  6  1  0  0  0  0
  2  7  1  0  0  0  0
  3  7  1  0  0  0  0
  6  7  1  0  0  0  0
  2  8  1  0  0  0  0
  6  8  1  0  0  0  0
  2  9  1  0  0  0  0
  4  9  1  0  0  0  0
  8  9  1  0  0  0  0
  1 10  1  0  0  0  0
  1 11  1  0  0  0  0
  1 12  1  0  0  0  0
  3 13  1  0  0  0  0
  4 14  1  0  0  0  0
  5 15  1  0  0  0  0
  5 16  1  0  0  0  0
  6 17  1  0  0  0  0
  9 18  1  0  0  0  0
M  END
