 xtb: 6.7.1 (edcfbbe)
          08072421383D

 15 15  0     0  0            999 V2000
    2.6178   -0.4920    0.1658 C   0  0  0  0  0  0  0  0  0  0  0  0
    1.1682   -0.6426   -0.2915 C   0  0  0  0  0  0  0  0  0  0  0  0
    0.4904    0.7042   -0.3455 C   0  0  0  0  0  0  0  0  0  0  0  0
   -0.0907    1.2202    0.8056 O   0  0  0  0  0  0  0  0  0  0  0  0
   -0.9840    0.8818   -0.2243 C   0  0  0  0  0  0  0  0  0  0  0  0
   -1.8947   -0.2752   -0.0388 C   0  0  0  0  0  0  0  0  0  0  0  0
   -1.7436   -1.1853    0.7302 O   0  0  0  0  0  0  0  0  0  0  0  0
    2.6523   -0.0315    1.1503 H   0  0  0  0  0  0  0  0  0  0  0  0
    3.1775    0.1307   -0.5291 H   0  0  0  0  0  0  0  0  0  0  0  0
    3.0946   -1.4670    0.2199 H   0  0  0  0  0  0  0  0  0  0  0  0
    0.6295   -1.2891    0.4024 H   0  0  0  0  0  0  0  0  0  0  0  0
    1.1346   -1.0907   -1.2878 H   0  0  0  0  0  0  0  0  0  0  0  0
    0.9986    1.4448   -0.9650 H   0  0  0  0  0  0  0  0  0  0  0  0
   -1.4282    1.7294   -0.7427 H   0  0  0  0  0  0  0  0  0  0  0  0
   -2.7744   -0.2270   -0.7110 H   0  0  0  0  0  0  0  0  0  0  0  0
  1  2  1  0  0  0  0
  2  3  1  0  0  0  0
  3  4  1  0  0  0  0
  3  5  1  0  0  0  0
  4  5  1  0  0  0  0
  5  6  1  0  0  0  0
  6  7  2  0  0  0  0
  1  8  1  0  0  0  0
  1  9  1  0  0  0  0
  1 10  1  0  0  0  0
  2 11  1  0  0  0  0
  2 12  1  0  0  0  0
  3 13  1  0  0  0  0
  5 14  1  0  0  0  0
  6 15  1  0  0  0  0
M  END
