  15
 
 C          1.0779224649        0.2741629439        0.1035997306
 C          2.5944210341        0.1096796021        0.0385956699
 C          3.0974200243       -0.7578319926        1.1683715324
 O          4.1666964746       -1.6213201547        0.9584067642
 C          2.9267515027       -2.2358435274        1.1904734978
 C          2.2884630264       -2.9518129141        0.0640946318
 O          1.4131876388       -3.7668565812        0.1923997011
 H          0.7387238554        0.9296906112       -0.6939396155
 H          0.7818000015        0.7072823696        1.0563195658
 H          0.5829724539       -0.6892144367       -0.0050009018
 H          3.0756100911        1.0871069236        0.1215794511
 H          2.8876342932       -0.3262489335       -0.9173937936
 H          3.0883032860       -0.2781553981        2.1473326339
 H          2.8052369271       -2.7124157080        2.1614980826
 H          2.6939169259       -2.6847328039       -0.9285569502
