 xtb: 6.7.0 (08769fc)
          08072420313D

 15 15  0     0  0            999 V2000
    2.6185   -0.5015    0.1715 C   0  0  0  0  0  0  0  0  0  0  0  0
    1.1649   -0.6513   -0.2731 C   0  0  0  0  0  0  0  0  0  0  0  0
    0.4922    0.6976   -0.3388 C   0  0  0  0  0  0  0  0  0  0  0  0
   -0.0827    1.2278    0.8089 O   0  0  0  0  0  0  0  0  0  0  0  0
   -0.9810    0.8819   -0.2140 C   0  0  0  0  0  0  0  0  0  0  0  0
   -1.8951   -0.2699   -0.0131 C   0  0  0  0  0  0  0  0  0  0  0  0
   -1.7449   -1.1717    0.7656 O   0  0  0  0  0  0  0  0  0  0  0  0
    3.1762    0.1081   -0.5366 H   0  0  0  0  0  0  0  0  0  0  0  0
    3.0907   -1.4780    0.2365 H   0  0  0  0  0  0  0  0  0  0  0  0
    2.6625   -0.0268    1.1488 H   0  0  0  0  0  0  0  0  0  0  0  0
    0.6284   -1.2867    0.4327 H   0  0  0  0  0  0  0  0  0  0  0  0
    1.1219   -1.1117   -1.2635 H   0  0  0  0  0  0  0  0  0  0  0  0
    1.0010    1.4297   -0.9679 H   0  0  0  0  0  0  0  0  0  0  0  0
   -1.4242    1.7256   -0.7397 H   0  0  0  0  0  0  0  0  0  0  0  0
   -2.7765   -0.2263   -0.6834 H   0  0  0  0  0  0  0  0  0  0  0  0
  1  2  1  0  0  0  0
  2  3  1  0  0  0  0
  3  4  1  0  0  0  0
  3  5  1  0  0  0  0
  4  5  1  0  0  0  0
  5  6  1  0  0  0  0
  6  7  2  0  0  0  0
  1  8  1  0  0  0  0
  1  9  1  0  0  0  0
  1 10  1  0  0  0  0
  2 11  1  0  0  0  0
  2 12  1  0  0  0  0
  3 13  1  0  0  0  0
  5 14  1  0  0  0  0
  6 15  1  0  0  0  0
M  END
