13

C          2.25353       -0.52838        1.39330
C          2.55064        0.07183        0.04790
O          2.18772        1.21631       -0.24018
C          3.33057       -0.80530       -0.93580
O          3.03014       -0.47399       -2.28338
C          4.82498       -0.61963       -0.72923
C          6.10688       -0.46035       -0.55203
H          1.71126        0.19185        2.01343
H          3.18619       -0.79341        1.89767
H          1.63086       -1.41824        1.27509
H          3.05426       -1.85286       -0.78245
H          3.20608        0.48284       -2.36371
H          7.15564       -0.32784       -0.41424
