38

C          1.92100       -0.39406       -0.48162
N          2.21580        0.08149        0.74844
C          1.57349        1.24833        1.01761
C          0.75470        1.71215       -0.00864
S          0.84542        0.61801       -1.28468
C         -0.04505        2.94872        0.01227
C         -0.85587        3.35912       -1.02326
C         -1.49290        4.55549       -0.78685
C         -1.19888        5.12763        0.44805
Se        -0.03881        4.09155        1.41568
C         -1.75842        6.43828        0.93138
C         -2.69470        7.16141        0.15664
N         -3.21371        8.34420        0.59153
C         -2.86675        8.93247        1.76839
C         -3.48339       10.24206        2.14376
C         -2.79705       11.18808        2.95233
C         -3.38915       12.41630        3.30658
C         -4.68361       12.73383        2.87290
C         -5.34399       11.80360        2.07991
C         -6.60236       11.84239        1.52927
O         -6.80070       10.72309        0.85962
C         -5.72689        9.95857        0.94946
C         -4.77503       10.61117        1.71609
C         -1.94174        8.26199        2.58609
N         -1.54078        8.70093        3.80648
S         -0.50690        7.51990        4.30068
N         -0.52948        6.44588        3.05152
C         -1.39467        7.01236        2.17032
H          2.33573       -1.30840       -0.88278
H          1.70181        1.76114        1.96171
H         -0.98334        2.80375       -1.94325
H         -2.14985        4.98296       -1.52803
H         -3.03350        6.79923       -0.80028
H         -1.79138       11.01055        3.29972
H         -2.83854       13.11953        3.91748
H         -5.14732       13.67076        3.14827
H         -7.32609       12.64124        1.62634
H         -5.64846        8.98114        0.49617
