  15
 
 C          1.1486968316        0.0025289995        0.0292242783
 C          2.6644988293       -0.1485948968       -0.0029583311
 C          3.0834915944       -1.5786672846       -0.2835450911
 O          2.3221684093       -2.4990256809       -0.4641163193
 N          4.4540632355       -1.7391227664       -0.3149604300
 C          5.0894608033       -2.9444450564       -0.5499172463
 N          6.3233256540       -3.1557969869       -0.5890842137
 H          0.8750639120        1.0348942066        0.2309600434
 H          0.7239511246       -0.6336871935        0.8017972038
 H          0.7208712712       -0.2971657360       -0.9242963684
 H          3.0944967688        0.1529586176        0.9562583627
 H          3.0914041867        0.4924711006       -0.7793309096
 H          5.0396082154       -0.9269726712       -0.1554117432
 H          4.4043179515       -3.7686377470       -0.7118203952
 H          6.9102012122       -2.3376669046       -0.4280688402
