13

C          2.10764        0.26240       -1.42033
C          2.41904       -0.02147        0.03285
O          2.06872       -1.08045        0.55902
C          3.18816        1.05390        0.79063
O          2.89036        1.03504        2.17843
C          4.68257        0.82681        0.63070
C          5.96447        0.63202        0.49351
H          1.56590       -0.58331       -1.85623
H          3.03691        0.40893       -1.97470
H          1.47791        1.15157       -1.48916
H          2.91052        2.03949        0.40540
H          3.09523        0.12896        2.47864
H          7.01302        0.47159        0.38743
