 xtb: 6.7.0 (08769fc)
          08072419593D

 13 12  0     0  0            999 V2000
   -1.6178   -1.2816   -0.4615 C   0  0  0  0  0  0  0  0  0  0  0  0
   -1.0374   -0.0226    0.0999 C   0  0  0  0  0  0  0  0  0  0  0  0
   -1.4907    0.5903    1.0366 O   0  0  0  0  0  0  0  0  0  0  0  0
    0.2409    0.4897   -0.5837 C   0  0  0  0  0  0  0  0  0  0  0  0
    0.5266    1.8046   -0.1771 O   0  0  0  0  0  0  0  0  0  0  0  0
    1.3086   -0.4443   -0.2218 C   0  0  0  0  0  0  0  0  0  0  0  0
    2.1960   -1.1632    0.1371 C   0  0  0  0  0  0  0  0  0  0  0  0
   -2.1229   -1.0431   -1.3976 H   0  0  0  0  0  0  0  0  0  0  0  0
   -2.3425   -1.7031    0.2306 H   0  0  0  0  0  0  0  0  0  0  0  0
   -0.8308   -2.0012   -0.6756 H   0  0  0  0  0  0  0  0  0  0  0  0
    0.1173    0.4893   -1.6754 H   0  0  0  0  0  0  0  0  0  0  0  0
    0.0675    1.9399    0.6684 H   0  0  0  0  0  0  0  0  0  0  0  0
    2.9768   -1.8063    0.4176 H   0  0  0  0  0  0  0  0  0  0  0  0
  1  2  1  0  0  0  0
  2  3  2  0  0  0  0
  2  4  1  0  0  0  0
  4  5  1  0  0  0  0
  4  6  1  0  0  0  0
  6  7  3  0  0  0  0
  1  8  1  0  0  0  0
  1  9  1  0  0  0  0
  1 10  1  0  0  0  0
  4 11  1  0  0  0  0
  5 12  1  0  0  0  0
  7 13  1  0  0  0  0
M  END
