  38

 C          1.0525372911       -0.6536456381        0.5288718217
 N          1.8310962118       -0.0311761912        1.3427288677
 C          1.5834951620        1.2883558111        1.3505879619
 C          0.5741882756        1.7065038107        0.5110635581
 S         -0.0842252616        0.3385101573       -0.3253876577
 C          0.0955014556        3.0437399003        0.3196732862
 N          0.6564764803        4.0218887079        1.0096961336
 C          0.2432872360        5.2752825919        0.8907942197
 C         -0.7957825081        5.7204267394        0.0744406683
 C         -1.2389019741        7.0758612798       -0.0194127317
 S         -2.1380415610        7.5750126603       -1.4210269415
 C         -2.2449216374        9.2296563090       -0.8866043749
 C         -2.8968634318       10.2187522107       -1.7150488571
 C         -3.2031376574       11.4923232276       -1.2296012991
 C         -3.8147108205       12.4266306278       -2.0413451682
 C         -4.1345688695       12.1136495305       -3.3526442144
 C         -3.8425887908       10.8514766423       -3.8456489383
 C         -3.2328089198        9.9140252834       -3.0380608219
 C         -1.6397177199        9.3511533975        0.3443829653
 Se        -1.3766061470       10.7794845291        1.5391990750
 C         -0.5256232453        9.5333594591        2.6469091420
 C         -0.4717988933        8.2855285163        2.1395236192
 C         -1.0624220469        8.1451299169        0.8480831321
 C         -1.3925198072        4.7043858543       -0.7167526319
 N         -2.3704961157        4.8276621330       -1.6105418006
 S         -2.6953768079        3.3784757987       -2.2290150544
 N         -1.6181637306        2.5241513205       -1.3963528709
 C         -0.9503993428        3.3460689989       -0.5908827454
 H          1.0838056539       -1.7134534256        0.3718946433
 H          2.1539030546        1.9441183697        1.9810781602
 H          0.8112290748        5.9803590773        1.4788283048
 H         -2.9757992058       11.7506825977       -0.2032138656
 H         -4.0462537347       13.4051735500       -1.6476139614
 H         -4.6094945344       12.8479470957       -3.9855820210
 H         -4.0892136960       10.5989523442       -4.8662757980
 H         -3.0033816984        8.9326728998       -3.4273157218
 H         -0.1410927667        9.8443719444        3.6019469239
 H         -0.0410989711        7.4617919618        2.6807049929
