 xtb: 6.5.1 (fef0646)
          06142402583D

 38 43  0     0  0            999 V2000
    7.6207    0.3769    0.1236 C   0  0  0  0  0  0  0  0  0  0  0  0
    7.3033    1.6116    0.3002 N   0  0  0  0  0  0  0  0  0  0  0  0
    5.9714    1.7802    0.3214 C   0  0  0  0  0  0  0  0  0  0  0  0
    5.2261    0.6337    0.1548 C   0  0  0  0  0  0  0  0  0  0  0  0
    6.2903   -0.7218   -0.0385 S   0  0  0  0  0  0  0  0  0  0  0  0
    3.7987    0.5115    0.1329 C   0  0  0  0  0  0  0  0  0  0  0  0
    3.0644    1.5953    0.3199 N   0  0  0  0  0  0  0  0  0  0  0  0
    1.7407    1.5458    0.2945 C   0  0  0  0  0  0  0  0  0  0  0  0
    0.9671    0.4081    0.0625 C   0  0  0  0  0  0  0  0  0  0  0  0
   -0.4604    0.3752    0.0183 C   0  0  0  0  0  0  0  0  0  0  0  0
   -1.2648   -1.1618    0.1397 S   0  0  0  0  0  0  0  0  0  0  0  0
   -2.8543   -0.4512    0.0778 C   0  0  0  0  0  0  0  0  0  0  0  0
   -4.0253   -1.2950    0.1524 C   0  0  0  0  0  0  0  0  0  0  0  0
   -5.3152   -0.7593    0.1846 C   0  0  0  0  0  0  0  0  0  0  0  0
   -6.4200   -1.5844    0.2521 C   0  0  0  0  0  0  0  0  0  0  0  0
   -6.2657   -2.9607    0.2912 C   0  0  0  0  0  0  0  0  0  0  0  0
   -4.9920   -3.5067    0.2630 C   0  0  0  0  0  0  0  0  0  0  0  0
   -3.8852   -2.6864    0.1941 C   0  0  0  0  0  0  0  0  0  0  0  0
   -2.7366    0.9143   -0.0591 C   0  0  0  0  0  0  0  0  0  0  0  0
   -3.9711    2.3222   -0.2376 Se  0  0  0  0  0  0  0  0  0  0  0  0
   -2.4827    3.4433   -0.3997 C   0  0  0  0  0  0  0  0  0  0  0  0
   -1.2973    2.8074   -0.3083 C   0  0  0  0  0  0  0  0  0  0  0  0
   -1.3927    1.3985   -0.1025 C   0  0  0  0  0  0  0  0  0  0  0  0
    1.7222   -0.7826   -0.1048 C   0  0  0  0  0  0  0  0  0  0  0  0
    1.2705   -2.0187   -0.3023 N   0  0  0  0  0  0  0  0  0  0  0  0
    2.5252   -3.0172   -0.4326 S   0  0  0  0  0  0  0  0  0  0  0  0
    3.7005   -1.9368   -0.2484 N   0  0  0  0  0  0  0  0  0  0  0  0
    3.1546   -0.7359   -0.0739 C   0  0  0  0  0  0  0  0  0  0  0  0
    8.6320    0.0250    0.0762 H   0  0  0  0  0  0  0  0  0  0  0  0
    5.5513    2.7585    0.4603 H   0  0  0  0  0  0  0  0  0  0  0  0
    1.2671    2.4930    0.5015 H   0  0  0  0  0  0  0  0  0  0  0  0
   -5.4588    0.3132    0.1635 H   0  0  0  0  0  0  0  0  0  0  0  0
   -7.4084   -1.1501    0.2754 H   0  0  0  0  0  0  0  0  0  0  0  0
   -7.1317   -3.6030    0.3438 H   0  0  0  0  0  0  0  0  0  0  0  0
   -4.8624   -4.5784    0.2939 H   0  0  0  0  0  0  0  0  0  0  0  0
   -2.8951   -3.1179    0.1688 H   0  0  0  0  0  0  0  0  0  0  0  0
   -2.6229    4.4980   -0.5558 H   0  0  0  0  0  0  0  0  0  0  0  0
   -0.3612    3.3266   -0.4120 H   0  0  0  0  0  0  0  0  0  0  0  0
  1  2  2  0  0  0  0
  2  3  4  0  0  0  0
  3  4  4  0  0  0  0
  1  5  1  0  0  0  0
  4  5  1  0  0  0  0
  4  6  1  0  0  0  0
  6  7  4  0  0  0  0
  7  8  4  0  0  0  0
  8  9  4  0  0  0  0
  9 10  1  0  0  0  0
 10 11  1  0  0  0  0
 11 12  1  0  0  0  0
 12 13  1  0  0  0  0
 13 14  4  0  0  0  0
 14 15  4  0  0  0  0
 15 16  4  0  0  0  0
 16 17  4  0  0  0  0
 13 18  4  0  0  0  0
 17 18  4  0  0  0  0
 12 19  4  0  0  0  0
 19 20  1  0  0  0  0
 20 21  1  0  0  0  0
 21 22  2  0  0  0  0
 10 23  4  0  0  0  0
 19 23  4  0  0  0  0
 22 23  1  0  0  0  0
  9 24  1  0  0  0  0
 24 25  4  0  0  0  0
 25 26  2  0  0  0  0
 26 27  2  0  0  0  0
  6 28  1  0  0  0  0
 24 28  1  0  0  0  0
 27 28  4  0  0  0  0
  1 29  1  0  0  0  0
  3 30  1  0  0  0  0
  8 31  1  0  0  0  0
 14 32  1  0  0  0  0
 15 33  1  0  0  0  0
 16 34  1  0  0  0  0
 17 35  1  0  0  0  0
 18 36  1  0  0  0  0
 21 37  1  0  0  0  0
 22 38  1  0  0  0  0
M  END
