  12
 
 N          1.2083042979        0.2183985923        0.3572831891
 C          2.3653519622        0.0346129116       -0.0635679365
 C          3.3372317037       -1.1063609048       -0.3288377484
 C          4.2555534166        0.0511158383       -0.7854812789
 O          3.2254624227        1.0047885201       -0.4765532381
 C          4.5960209289        0.0033501685       -2.2508042009
 O          5.5759030303       -0.5179070933       -2.7022176590
 H          0.7041674283       -0.6188023827        0.6259869351
 H          3.0342841363       -1.8016442960       -1.1093176099
 H          3.6748957989       -1.6520252295        0.5486508857
 H          5.1499080200        0.2055137213       -0.1750877807
 H          3.8251968543        0.4728301541       -2.8896035574
