12

N          1.15220        0.12987        0.21440
C          2.39179        0.03386       -0.06259
C          3.37587       -1.08244       -0.20567
C          4.26307        0.04649       -0.77512
O          3.23663        1.02513       -0.38502
C          4.54019        0.03593       -2.30083
O          5.11073       -0.85700       -2.92826
H          0.75597       -0.80025        0.38822
H          3.07191       -1.86539       -0.90262
H          3.70746       -1.50479        0.74492
H          5.18262        0.20959       -0.19856
H          4.16384        0.92287       -2.83842
