47

C         -1.01018        1.01507        0.60640
S         -1.35158       -0.46852        1.39341
C         -1.06109       -1.38259       -0.02753
C         -1.18889       -2.82547       -0.03652
C         -1.57936       -3.38460       -1.24222
C         -1.75414       -4.74416       -1.39599
C         -1.35856       -5.33696       -2.57028
C         -2.42602       -5.63163       -3.41738
S         -2.06172       -6.31546       -4.89622
C         -3.53270       -5.48275       -5.35592
C         -3.72553       -4.92626       -6.58263
C         -3.49511       -6.03667       -7.34448
C         -4.77844       -6.42581       -7.28799
C         -5.22058       -6.27455       -8.57578
N         -6.29303       -7.03462       -8.54055
C         -6.43406       -7.47482       -7.15534
C         -5.57126       -6.98522       -6.06052
C         -4.44182       -6.33253       -4.72025
C         -3.68453       -6.17533       -3.07707
C         -3.25009       -6.44286       -1.48236
C         -2.08957       -5.58962       -0.44037
C         -0.94526       -5.07698        0.79888
C          0.00534       -5.71266        1.79015
C          0.95738       -5.06264        2.70136
C          0.91711       -3.70652        2.89504
C          0.04399       -3.03551        2.06846
C         -0.71788       -3.65953        0.97737
C         -0.75915       -0.57298       -1.08775
S         -0.40208       -0.93784       -2.82683
C         -0.08366        0.77116       -2.96025
C         -0.30827        1.54307       -1.81151
C         -0.70323        0.76169       -0.68916
H         -1.06491        1.93012        1.17408
H         -1.69640       -2.75985       -2.12211
H         -0.78054       -6.28412       -2.46379
H         -4.60477       -4.29043       -6.79360
H         -2.91231       -6.92710       -7.05121
H         -4.72962       -5.83163       -9.45190
H         -6.71449       -7.33597       -9.42606
H         -7.24247       -8.19990       -7.23288
H         -3.21160       -7.51155       -1.23699
H          0.09790       -6.79834        1.81665
H          1.72791       -5.61117        3.25534
H          1.55767       -3.17209        3.60474
H          0.03827       -1.95259        2.21746
H          0.24745        1.11604       -3.92999
H         -0.16717        2.61598       -1.81393
