46
PUBCHEM 000001712 B3LYP 6-31G(d) at PM6 optimized geometry
C         26.70539       -2.03340       -2.81949
C         26.22702       -0.75876       -2.48491
C         25.21194       -0.19772       -3.27024
N         24.66661       -0.82976       -4.34127
C         25.15181       -2.07765       -4.66247
C         26.17599       -2.71285       -3.91083
N         24.55822       -2.69590       -5.76651
S         23.41965       -1.91776       -6.84682
O         24.04233       -0.76221       -7.43887
O         23.09271       -3.05523       -7.69528
C         22.05986       -1.49354       -5.92257
C         21.95083       -0.20909       -5.36048
C         20.82475        0.15771       -4.63874
C         19.77220       -0.78044       -4.45535
C         19.88472       -2.08145       -5.01637
C         21.02294       -2.42085       -5.73114
N         18.68483       -0.40651       -3.67509
C         17.45102       -1.21162       -3.55090
C         16.28265       -0.55765       -4.19386
C         16.03411       -0.10645       -5.43713
C         14.59198        0.46186       -5.43064
N         14.03056        0.35068       -4.25679
C         15.00870       -0.29053       -3.35277
O         14.83353       -0.54067       -2.20131
C         14.03298        1.02758       -6.65251
C         14.75628        1.06050       -7.79061
C         16.11500        0.52680       -7.81265
C         16.71904       -0.02881       -6.68338
S         18.31179       -0.55483       -7.07914
C         18.08946        0.00061       -8.74805
N         16.90827        0.53392       -8.97079
H         27.49565       -2.49185       -2.22301
H         26.63555       -0.21677       -1.63867
H         24.80348        0.79656       -3.05169
H         26.53771       -3.69753       -4.18598
H         24.91308       -3.62817       -6.01849
H         22.76591        0.51510       -5.50327
H         20.75595        1.15383       -4.21169
H         19.09311       -2.81298       -4.86922
H         21.10763       -3.42551       -6.16592
H         18.60800        0.55921       -3.36373
H         17.24935       -1.36539       -2.45534
H         17.59737       -2.23722       -3.98041
H         13.01104        1.41441       -6.58694
H         14.37096        1.47672       -8.72730
H         18.87844       -0.10740       -9.48756
