26
PUBCHEM 000007801 B3LYP 6-31G(d) at PM6 optimized geometry
C         -0.11993        1.25223       -3.06785
C          0.61779        0.79730       -2.05434
C          1.22662       -0.56718       -2.07828
O          1.92115       -0.97637       -1.16754
C          0.94246       -1.41133       -3.27885
C          0.20507       -0.95687       -4.29341
C         -0.38321        0.42461       -4.29008
O         -1.03106        0.84175       -5.22074
C         -0.71978        1.14221        3.36328
C          0.27619        1.51792        2.46231
C          0.86600        0.53038        1.65768
C          0.49093       -0.82302        1.72901
C         -0.50099       -1.19889        2.62894
C         -1.09284       -0.20836        3.43282
O         -2.06971       -0.66688        4.29272
O          1.82791        0.97658        0.77961
H         -0.57715        2.24649       -3.07541
H          0.82161        1.38437       -1.14384
H          1.38250       -2.41280       -3.25841
H         -0.01791       -1.55018       -5.18519
H         -1.19213        1.88569        3.99877
H          0.60421        2.55181        2.37650
H          0.97401       -1.56070        1.08858
H         -0.82481       -2.23387        2.72460
H         -2.44255        0.06046        4.84472
H          2.25897        0.20675        0.28656
