5
PUBCHEM 000011029 B3LYP 6-31G(d) at PM6 optimized geometry
C          1.08783        0.25983        0.33463
O          1.27415        1.28305        0.93591
O          0.10609       -0.66585        0.57677
O          1.81536       -0.21044       -0.72782
Mg         0.72448       -1.73553       -0.83793
