30
PUBCHEM 000017851 B3LYP 6-31G(d) at PM6 optimized geometry
C          0.93920       -1.77930       -0.32021
C          2.22699       -2.34445        0.28250
N          3.17076       -1.22820        0.46827
C          4.36560       -1.37577        0.91403
N          5.26155       -0.29008        1.06768
C          6.49879       -0.47424        1.56719
N          7.06230       -1.74743        1.90378
C          6.12909       -2.71108        1.72027
N          4.89457       -2.73109        1.30709
N          6.59901       -4.11774        2.06433
N          7.77122       -4.33741        2.55761
N          8.81504       -4.45139        2.95483
N          7.26685        0.65834        1.82896
C          8.74896        0.57522        1.99107
C          9.44330        0.40697        0.63345
C          9.20942        1.85379        2.70006
H          0.19455       -2.56395       -0.47317
H          1.13558       -1.29206       -1.28407
H          0.50506       -1.00895        0.33072
H          2.65562       -3.12516       -0.38649
H          2.01123       -2.84261        1.25545
H          5.90335       -4.89797        1.97266
H          6.90199        1.53515        1.44273
H          8.97656       -0.31512        2.63854
H          9.22305        1.23284       -0.05154
H          9.12007       -0.51943        0.14097
H         10.53066        0.35746        0.74777
H          9.05301        2.75108        2.09082
H         10.27793        1.80353        2.93625
H          8.66884        2.00218        3.64443
