  10
 
 C          1.0141573951       -0.1133442492       -0.0042041581
 C          2.5227037875       -0.0804606698       -0.0279984672
 C          3.2418329785       -1.1423841060        0.7673636809
 O          3.1276594122        0.7581892484       -0.6560249445
 H          0.6226039023       -0.9224636269        0.6025428362
 H          0.6485630062       -0.2108034200       -1.0254325685
 H          0.6478072869        0.8396952909        0.3747038223
 H          2.5617409021       -1.8177393265        1.2748005871
 H          3.8890670925       -0.6572376468        1.4966399555
 H          3.8871542366       -1.7074414940        0.0963192564
