  14
 
 C          0.8898557873        0.0367793431        0.1789304345
 C          2.4032420250        0.1139435937        0.1272785418
 C          3.1828299856       -0.9988604838        0.8441296820
 O          3.8371663972       -0.0520245420        1.6974318033
 C          3.1094210177        1.0510956397        1.1408672062
 C          2.2519666831        1.7066338490        2.1036716286
 N          1.5695367851        2.2136783049        2.8688199174
 H          0.5438957347       -0.7749128424       -0.4576354282
 H          0.4511106022        0.9683659995       -0.1733647981
 H          0.5430928210       -0.1430404867        1.1947822873
 H          2.7431406895        0.2894863220       -0.8945619353
 H          3.9029291241       -1.5549910811        0.2393152541
 H          2.5644209676       -1.6941999139        1.4190688421
 H          3.7826413797        1.8026962979        0.7054165644
