  12
 
 N          2.7554279067        0.3389421809       -1.0422526716
 C          2.3384525630       -0.1093849590        0.0626133979
 N          3.1934042295       -0.5091320898        1.0489522555
 C          4.5748253935       -0.4876653744        0.9963171473
 N          5.3319283872       -0.1080433443        0.0603333123
 C          5.2118033267       -0.9953578861        2.2486959014
 O          4.5907369132       -1.3824767133        3.2054560176
 H          2.0304774778        0.6047753501       -1.6989940360
 H          1.2854058585       -0.2278148755        0.3533106143
 H          2.8044246230       -0.8613153804        1.9165787196
 H          4.8345894500        0.2262557615       -0.7643751151
 H          6.3109938710       -0.9809026698        2.2112644568
