12

N          2.69595        0.37568       -1.13264
C          2.37119       -0.09306        0.02255
N          3.23696       -0.48728        0.99419
C          4.60967       -0.50183        1.03025
N          5.39623       -0.11606        0.07817
C          5.26770       -1.01386        2.29489
O          4.56042       -1.38951        3.22011
H          1.84803        0.59425       -1.67076
H          1.31257       -0.21107        0.31312
H          2.81802       -0.83656        1.85465
H          4.77677        0.19727       -0.69550
H          6.36896       -1.01009        2.28887
