  13
 
 O          2.4902773793       -1.3945964720       -0.5212895826
 C          2.5083356482       -0.0679395700       -0.0346722244
 C          3.3585035382        0.0548904934        1.1436517732
 N          4.0268379841        0.1234126656        2.0690857907
 C          3.0401388186        0.8367065364       -1.1401250659
 C          3.0778971386        2.3044030938       -0.9553687617
 N          2.0673545249        1.6853174210       -1.7815768876
 H          2.1287002647       -1.9834372617        0.1520763701
 H          1.4952201608        0.2747884042        0.2370964129
 H          3.8175203196        0.3539310384       -1.7256800609
 H          3.8857249792        2.8646360198       -1.4110394391
 H          2.7106547509        2.7239226388       -0.0277269330
 H          2.2001844929        1.8022549924       -2.7805613916
