13

O          2.41033       -1.42440       -0.53096
C          2.44494       -0.08216       -0.03655
C          3.39019        0.05645        1.08634
N          4.11879        0.16275        1.98689
C          2.99149        0.82018       -1.10858
C          3.05700        2.32129       -0.92556
N          2.08542        1.72678       -1.83244
H          2.18645       -1.99613        0.22309
H          1.43048        0.20234        0.26189
H          3.76583        0.34496       -1.70218
H          3.88854        2.85485       -1.37121
H          2.65781        2.76250       -0.02014
H          2.38008        1.82888       -2.80672
