 xtb: 6.5.1 (fef0646)
          06142402583D

 34 37  0     0  0            999 V2000
   -6.5976    0.0929   -0.0169 C   0  0  0  0  0  0  0  0  0  0  0  0
   -5.6065    1.0277   -0.0141 C   0  0  0  0  0  0  0  0  0  0  0  0
   -4.2531    0.6063   -0.0049 C   0  0  0  0  0  0  0  0  0  0  0  0
   -3.1791    1.4924   -0.0025 C   0  0  0  0  0  0  0  0  0  0  0  0
   -1.8740    1.0226    0.0048 C   0  0  0  0  0  0  0  0  0  0  0  0
   -0.7193    1.8527    0.0062 C   0  0  0  0  0  0  0  0  0  0  0  0
    0.4930    1.4185    0.0094 N   0  0  0  0  0  0  0  0  0  0  0  0
    0.7738    0.0772    0.0123 C   0  0  0  0  0  0  0  0  0  0  0  0
    2.1565   -0.3267    0.0112 C   0  0  0  0  0  0  0  0  0  0  0  0
    3.1881    0.5321    0.0051 C   0  0  0  0  0  0  0  0  0  0  0  0
    4.5684    0.1102    0.0002 C   0  0  0  0  0  0  0  0  0  0  0  0
    5.6177    1.0473   -0.0066 C   0  0  0  0  0  0  0  0  0  0  0  0
    6.9356    0.6352   -0.0130 C   0  0  0  0  0  0  0  0  0  0  0  0
    7.2629   -0.7101   -0.0129 C   0  0  0  0  0  0  0  0  0  0  0  0
    6.2410   -1.6632   -0.0059 C   0  0  0  0  0  0  0  0  0  0  0  0
    4.9630   -1.2090    0.0002 C   0  0  0  0  0  0  0  0  0  0  0  0
   -0.2762   -0.7887    0.0143 C   0  0  0  0  0  0  0  0  0  0  0  0
   -1.6136   -0.3980    0.0102 C   0  0  0  0  0  0  0  0  0  0  0  0
   -2.6940   -1.2797    0.0092 C   0  0  0  0  0  0  0  0  0  0  0  0
   -4.0023   -0.8065    0.0013 C   0  0  0  0  0  0  0  0  0  0  0  0
   -5.0159   -1.7089   -0.0011 N   0  0  0  0  0  0  0  0  0  0  0  0
   -6.2371   -1.2760   -0.0098 C   0  0  0  0  0  0  0  0  0  0  0  0
   -7.6398    0.3721   -0.0243 H   0  0  0  0  0  0  0  0  0  0  0  0
   -5.8265    2.0868   -0.0192 H   0  0  0  0  0  0  0  0  0  0  0  0
   -3.3647    2.5584   -0.0070 H   0  0  0  0  0  0  0  0  0  0  0  0
   -0.8406    2.9301    0.0041 H   0  0  0  0  0  0  0  0  0  0  0  0
    2.3414   -1.3925    0.0139 H   0  0  0  0  0  0  0  0  0  0  0  0
    2.9927    1.5954    0.0026 H   0  0  0  0  0  0  0  0  0  0  0  0
    5.3718    2.1001   -0.0069 H   0  0  0  0  0  0  0  0  0  0  0  0
    7.7242    1.3744   -0.0183 H   0  0  0  0  0  0  0  0  0  0  0  0
    8.2945   -1.0301   -0.0182 H   0  0  0  0  0  0  0  0  0  0  0  0
    6.4772   -2.7168   -0.0057 H   0  0  0  0  0  0  0  0  0  0  0  0
   -2.5255   -2.3447    0.0134 H   0  0  0  0  0  0  0  0  0  0  0  0
   -7.0089   -2.0360   -0.0117 H   0  0  0  0  0  0  0  0  0  0  0  0
  1  2  2  0  0  0  0
  2  3  4  0  0  0  0
  3  4  4  0  0  0  0
  4  5  4  0  0  0  0
  5  6  4  0  0  0  0
  6  7  2  0  0  0  0
  7  8  1  0  0  0  0
  8  9  1  0  0  0  0
  9 10  2  0  0  0  0
 10 11  1  0  0  0  0
 11 12  4  0  0  0  0
 12 13  4  0  0  0  0
 13 14  4  0  0  0  0
 14 15  4  0  0  0  0
 11 16  4  0  0  0  0
 15 16  2  0  0  0  0
  8 17  4  0  0  0  0
  5 18  1  0  0  0  0
 17 18  4  0  0  0  0
 18 19  4  0  0  0  0
  3 20  1  0  0  0  0
 19 20  4  0  0  0  0
 20 21  4  0  0  0  0
  1 22  4  0  0  0  0
 21 22  2  0  0  0  0
  1 23  1  0  0  0  0
  2 24  1  0  0  0  0
  4 25  1  0  0  0  0
  6 26  1  0  0  0  0
  9 27  1  0  0  0  0
 10 28  1  0  0  0  0
 12 29  1  0  0  0  0
 13 30  1  0  0  0  0
 14 31  1  0  0  0  0
 15 32  1  0  0  0  0
 19 33  1  0  0  0  0
 22 34  1  0  0  0  0
M  END
