12

N          1.20702        0.04159        0.30185
C          2.44911       -0.04962        0.03141
C          3.43383       -1.16400       -0.11586
C          4.31878       -0.03136       -0.68170
O          3.29317        0.94335       -0.28087
C          4.58857       -0.03042       -2.20745
O          5.14742       -0.92395       -2.84468
H          0.81058       -0.88772        0.46558
H          3.13078       -1.94520       -0.81492
H          3.76616       -1.58953        0.83384
H          5.24077        0.12826       -0.10872
H          4.21470        0.86243       -2.73767
