49

C          1.32664        1.11980        0.49953
S          2.34415       -0.22206        0.85177
C          1.33823       -1.43086        0.02364
C          1.85234       -2.83551       -0.01764
C          1.47622       -3.68280       -0.98309
C          2.18650       -4.97030       -0.81795
C          1.66684       -6.19931       -0.59948
C          2.41544       -7.37638        0.34714
C          4.04546       -7.85053        0.53183
C          4.08274       -6.79758       -0.33663
C          3.37985       -5.12547       -0.21249
C          2.97062       -3.69735        0.85784
C          3.82826       -8.20857       -1.33266
C          2.95588       -8.50754       -2.42426
N          2.23268       -9.73869       -2.26325
C          2.50978      -10.34642       -1.10503
C          3.62166       -9.70828       -0.65825
C          3.93778      -10.02231        0.67819
C          3.58938      -10.90424        1.66877
C          3.65723      -12.14114        1.12866
C          4.95951      -12.24760        1.46544
C          5.22819      -12.67006        2.77546
N          6.37987      -13.27951        2.51583
C          6.75016      -12.43422        1.29330
C          6.01104      -11.05140        1.03356
C          4.97503       -9.43642        0.79646
C          0.21802       -0.73112       -0.48524
C         -0.97235       -1.10314       -1.23505
C         -1.83065       -0.09291       -1.53515
Si        -1.21810        1.55109       -0.87307
C          0.25652        0.67317       -0.19981
H          1.55806        2.13086        0.82165
H          0.81498       -3.41842       -1.80071
H          1.20559       -6.50884       -1.56781
H          1.73801       -8.23360        0.15166
H          3.78448       -2.98436        1.02081
H          2.36942       -3.82994        1.79809
H          2.70969       -8.03849       -3.35996
H          1.58134      -10.18468       -2.89516
H          1.96424      -11.18167       -0.66321
H          4.16283      -10.62579        2.60989
H          3.67607      -12.21929        0.01541
H          4.68223      -12.69717        3.70590
H          6.58983      -14.25766        2.83595
H          7.00331      -13.32272        0.61164
H         -1.17735       -2.12095       -1.53309
H         -2.77031       -0.12051       -2.06900
H         -2.01368        2.07368        0.26975
H         -0.77293        2.51020       -1.91961
