  15
 
 C         -2.5560202482       -0.2440029869       -0.0154291213
 C         -1.1429621733        0.0639089264       -0.0184788385
 C          0.0276546999        0.3216467744        0.0017969832
 C          1.4583731334        0.5990307134       -0.0099719099
 C          2.2867249135       -0.6857923192        0.0213793558
 C          1.7517597881        1.4414656032       -1.2298480204
 O          2.5744207501        1.1985711612       -2.0691144427
 H         -2.9766792073       -0.0655149953       -1.0048523477
 H         -3.0737448358        0.3834748068        0.7097242751
 H         -2.7060525414       -1.2903192889        0.2494940755
 H          1.6938765178        1.2214376763        0.8658570850
 H          2.0528268388       -1.2999226492       -0.8455515504
 H          2.0707616636       -1.2529655231        0.9233501499
 H          3.3465133053       -0.4423712700       -0.0054911619
 H          1.1081373955        2.3413933710       -1.3005645319
