11

C          1.43303        0.05159        0.00100
C          0.68800        1.22595        0.00151
C         -0.69424        1.12564        0.00218
N         -1.36237       -0.04853        0.00552
C         -0.61197       -1.17189        0.00692
C          0.77379       -1.17331        0.00332
H          2.51852        0.09036       -0.00113
H          1.17153        2.19630        0.00127
H         -1.31976        2.01344        0.00006
H         -1.17257       -2.10232        0.01145
H          1.32543       -2.10632        0.00270
