12

O    -0.0375438016   -0.0548723574    0.0049767258
C    -0.0178208399    1.1487267706    0.0101344727
C    -1.2041497598    2.0990663189    0.0308989635
C    -0.7871979708    3.3783168638    0.0309029076
C     0.6939353222    3.3797799004    0.0103636212
C     1.1528644179     2.086434176   -0.0018596775
N      2.489212457     2.217746336   -0.0197853631
N     2.8391347406    3.5275068055   -0.0186464748
N     1.7306757141    4.2408900064   -0.0001201684
H    -2.2202906623    1.7316529717    0.0433262564
H    -1.4077448443    4.2642586289     0.043513584
H     3.2170036969    1.5196068793   -0.0330483974
