12

O    -0.1612019186      1.33004802    0.0107882736
N     1.0867257694     2.165633981    0.0035279852
N     2.2951788884    1.5831922685   -0.0112474131
C     2.4635069737      0.15323113   -0.0208121859
C      1.378032304   -0.6908142264   -0.0151489654
C     1.0851944911    -2.102384166   -0.0202094051
C    -0.3006640153   -2.1988385876   -0.0075192514
N    -1.0305453875   -0.9353679001    0.0064782895
C     0.0061327665   -0.0523221967    0.0014981147
H     3.5174975805   -0.1693791941   -0.0326676139
H     1.8112029661   -2.9190586723   -0.0316836738
H    -0.8899660782   -3.1288352964   -0.0070700304
