13

C    -0.0096509604     1.383458565    0.1908179143
C    -0.0065421241   -0.0991969628    0.0240244312
C    -0.0393235742   -0.8256593613   -1.1062430385
O    -0.0253705777   -2.1891261082   -0.8985661667
C     0.0214572308    -2.439503427    0.4665653155
C     0.0339991445    -1.101984712    1.0777934976
N      0.075775454   -0.9247938368    2.3656012235
N     0.1091948996   -0.7960484598    3.4908998275
O     0.0435326152   -3.5408444897    0.9357784228
H     0.8885686823    1.7329055535    0.7131159226
H    -0.0444320447    1.8769588142   -0.7834990182
H    -0.8756268659    1.7228699582    0.7709981493
H    -0.0750771894   -0.5176529033    -2.139244771
