12

C    -0.0268866193    1.3020655271    0.0095751101
N     1.1947284864    1.8101752717    0.0009811733
C     2.0767025169    0.7707895885    -0.013534418
C     1.3908820304   -0.4273554432    -0.013844162
N     1.7000646139   -1.7339745368   -0.0243383716
C     0.6743734902   -2.5391650913   -0.0189553643
N    -0.6645667842   -2.1777952734   -0.0038361819
N    -0.9990503063   -0.9492117822    0.0064825224
N     0.0230835112   -0.0541752813    0.0016290196
H    -0.9571612531    1.8470817631    0.0215755463
H     3.1445595819    0.9198778716   -0.0229374261
H     0.8427684919   -3.6096279938   -0.0267333379
