12

N      0.076758267    1.4405604023    0.2231059846
C     0.0333866049    0.0513224244    0.0733603322
C    -1.1133268117   -0.6602502136   -0.0745239449
F    -2.3053192908   -0.1063831504   -0.1750070828
O    -1.1570312504   -1.9814331284   -0.1431383532
C     0.0258254156   -2.7593615456   -0.0605352459
O    -0.0650656339    -3.951073832   -0.1194075484
C     1.2163994196   -1.9313941598    0.0824289613
N     1.2096070879   -0.6373662017    0.1425756553
H     0.9772626923     1.809244303   -0.0536133261
H    -0.6802745486    1.9264366052   -0.2381235174
H      2.163061698   -2.4596261735    0.1360610454
