12

N     -0.244947507     1.236554096    0.0025172202
C     0.0192308365   -0.0036793439   -0.0474668787
N      1.234104556   -0.6941163642   -0.0111460643
C     1.1026702685   -2.0827003987    0.0667559801
C    -0.3575532779   -2.2507546245    0.0386150687
N    -0.9707214948   -0.9893996862   -0.1469548114
N    -0.9604873159   -3.3886960444   -0.0687529937
N    -1.4715034226   -4.4095735708   -0.0909415385
O     1.9897980836   -2.8991655694    0.1210531715
H     0.5963445895    1.8019206099    0.0814067413
H       2.13400309   -0.2426788798   -0.0066137932
H    -1.8561899061   -0.7675834641    0.2844883279
