14

O    -0.0751935175      1.30647517    0.0101360249
N     1.0428729585    2.1120060358    0.0034565013
C     2.2016370246    1.5127654482   -0.0111926461
C     2.4414989613     0.107030697   -0.0211297868
C      1.353482855   -0.7068337357   -0.0147929887
C     1.0842933084   -2.1015894539   -0.0196596105
C    -0.2902802423   -2.2383660912   -0.0068532485
C    -0.9617937491   -0.9611446387    0.0066503775
C     0.0333624152    -0.029861035    0.0018623189
H     3.0287361284    2.2155197471   -0.0155594375
H     3.4614065497   -0.2613545378   -0.0331650658
H     1.8190858522     -2.89167977   -0.0311585051
H    -0.8164163811   -3.1855654617   -0.0067763703
H    -2.0263537532   -0.7909045041    0.0180589187
