15

C    -0.0659007917    1.3965027491   -0.0228479742
N    -0.0263142229   -0.0546262268   -0.0451801545
C     0.5494997975   -0.6267925641     0.930290757
N     1.1842626716   -0.1394339604    2.0766512407
N     1.6838258743   -1.1056391792    2.8921462941
C     1.3830146057   -2.2242033834     2.292483568
N     0.7029560751   -1.9987365502    1.1126653041
C     1.7135331665    -3.571102013     2.787038733
O     2.3050501695   -3.8025174411     3.810685278
H     0.9383660925    1.8525330156    -0.024853084
H    -0.5841762948    1.7562968011   -0.9149345248
H      -0.60742569    1.7967071828    0.8506863906
H     1.2949420917    0.8255331746    2.3321364551
H     0.3555972261   -2.6780208438    0.4583580482
H     1.3602675189   -4.3854185613    2.1149785788
