12

N      0.000328411    1.3865775933   -0.1314780757
C     0.0183473251    0.0254400432    -0.047983679
C    -1.1304229433   -0.7213339085   -0.0287286517
F    -2.3018016757   -0.0627090239   -0.0377395821
C    -1.1379760103   -2.1385285709   -0.0039458714
N    -2.1482955852   -2.9143628278    0.0279433909
N     0.2165491819   -2.6821703897   -0.0201918769
N     1.2676147852   -2.1289791233   -0.0253214559
O     1.2260244865   -0.5140932897   -0.0230064551
H     0.8416698355    1.8621130631    0.1531972645
H     -0.872760509    1.8396297152    0.0863617492
H    -1.8513872518    -3.889047581    0.0351589332
