15

C    -0.0008594694    1.3903217767    0.2070256089
O     -0.036165609   -0.0301736206    0.0936921053
C    -1.2428868215   -0.5864602787    -0.071355519
N      -2.31137069    0.1415973713   -0.1225350709
N    -3.4738517016   -0.5362720176   -0.2924558347
C    -3.6117730966   -1.9042653592     -0.41234028
N    -4.7701068817   -2.4340598071   -0.5703344294
C    -2.3049228024   -2.5705481393   -0.3324957672
N    -1.1824233449   -1.9641006664   -0.1722275471
H     1.0507492525    1.6488491641    0.3321946274
H    -0.4062579056    1.8643846513    -0.692431369
H    -0.5825043406    1.7281043884    1.0705908868
H     -4.304141708    0.0357495649   -0.3316697602
H    -4.6900933869   -3.4465830292   -0.6410943273
H    -2.2957024642   -3.6575985988   -0.4160936138
