15

O    -0.1292991183    1.4623844436    0.0115180888
C     0.0385855556    0.0553572244    0.0020356224
C    -1.3553905525   -0.5543236023    0.0121402871
C    -1.3430095144   -2.0589927318    0.0036855164
O    -0.3389544671   -2.7384559093   -0.0097530101
C    -2.7155565996   -2.7608186661    0.0130067214
O    -3.7462500513   -2.1389946393    0.0261404571
C    -2.7070319852   -4.3111181425    0.0046066355
O    -3.7398810943   -4.9236176355    0.0114632085
H     0.7418643448    1.8694606571    0.0052564121
H      0.585053076   -0.2865661099   -0.8890659289
H     0.6021788498   -0.2964350886    0.8785089006
H    -1.9233815947   -0.2125273459    0.8868835949
H    -1.9401822866   -0.2029183647   -0.8475930051
H    -1.7149977124   -4.7942495692   -0.0076988208
