17

C     0.7697962703   -0.1783977797   -0.1874967914
C     2.2453440626    0.0097046446   -0.0872257636
C     3.0245569744    1.2101802071    0.5667066625
C     3.2703856798    -0.227362868    0.9706543723
N     4.3344479742   -0.5891723622   -0.0139369309
C     5.3000616145    0.5533723916   -0.0015576706
C     4.2549628606    1.5741332607   -0.4651828023
N     3.7166562644    0.9380989852    -1.725515683
C     3.4300489717   -0.1473060294   -1.0845263335
H     0.2747161298     0.186842578    0.7181915015
H     0.5073245604   -1.2335070342    -0.314306195
H     0.3702427263    0.3824939764   -1.0376548371
H     2.5334997532    1.9285413656    1.2135135081
H     3.2256167773   -0.6919479372     1.947088074
H      6.103538428    0.4047948466   -0.7246294706
H     5.7002589984    0.6950359353     1.003513968
H     4.4917050743    2.6305859697   -0.5829411283
