12

N    -0.1233481237     1.167414056    0.4860172895
C    -0.0688408385   -0.0206755222    0.0510334239
O     1.0900881379   -0.5476730445   -0.4854882481
N     1.1457293867   -1.8546943923   -0.9625464087
C     0.0590620927   -2.5360324159   -0.8734546529
N    -1.1652830747   -2.1348017408   -0.3615271497
C    -1.2247862643   -0.9283739539     0.081310671
C    -2.5343382923   -0.4188677714    0.6570783269
O    -3.5153003765   -1.1111149244    0.7100816658
H     0.7719663794    1.6481856191    0.3842954303
H     0.1243221625   -3.5507609277   -1.2504979873
H    -2.5044818391    0.6232923181    1.0151158093
