19

C    -0.3927961874    1.6050269715      0.26954966
C    -0.1275813534    0.1189723518    0.1156122607
C    -1.2703896823   -0.6849961335    -0.407231483
N    -1.5470444774   -0.1970000191   -1.8608678705
H    -1.7112740309    0.8138929951   -1.8204532505
H    -0.6987119774   -0.3382635965   -2.4167884899
H    -2.3388715483   -0.6560248979   -2.3161614991
N     1.2139778161   -0.2408824115   -0.3989787297
C     0.8569972489   -0.5871302801    1.0022847167
C     1.5613747848    0.1293859887    2.2153912519
O     1.6658177306   -0.6274588017     3.188830746
O     1.8804092461    1.3195961959    2.0316819546
H     0.4711284671    2.0162314997    0.8103831499
H    -0.4882780488    2.1241487913   -0.6986851265
H    -1.3004715151    1.7844414306    0.8581467412
H    -1.0611180251   -1.7535850289   -0.4850688266
H    -2.2130520556   -0.5210429526    0.1221941393
H     1.1750843438   -1.0963592767   -0.9582128153
H     0.6526589044   -1.6402565763    1.1945894607
