16

C     0.0200262225    1.4070668477   -0.0509945346
N     0.0428798775   -0.0452296282   -0.0162045096
N     0.0019394148   -0.6760606184   -1.2039156991
C     0.0415232901   -1.9752484313   -1.1929310004
N     0.1096976479   -2.6727156646   -2.3993646426
C     0.0977950099    -2.684733688    0.0612193897
N     0.1026433184   -2.0879824589    1.2018841255
C      0.069267923   -0.6873285621    1.2258884205
N     0.0658628948    0.0245289227    2.2909999531
H     0.8974605185    1.8055539421    0.4661186243
H     0.0126707938     1.711183427   -1.0965694636
H    -0.8654050598    1.7820238325    0.4708805347
H    -0.0769256478   -2.0747643158   -3.1944200294
H     -0.461543704   -3.5070858009   -2.4283293345
H     0.1396961749   -3.7752555832    0.0540981928
H     0.0948977454   -0.6015010808    3.0934341632
