13

N    -0.1703820436    1.3073411389    0.0685779748
C     -0.063822616     0.032627666    0.0361908381
N     1.1217046322   -0.7007398072   -0.0727829791
N      1.235201039   -2.0348901628   -0.1060752906
C     0.1203786932   -2.6977312666   -0.0282232379
N    -1.1347681636   -2.1527670773    0.0822957799
C     -1.233140374   -0.8623158216    0.1138162037
C    -2.6062716526   -0.2408696714    0.2347247299
O    -3.6106020161   -0.9011525792    0.3008199741
H     0.7331244123    1.7785561212    0.0048097242
H     2.0014635986   -0.2064435467   -0.1350162858
H     0.1935822873   -3.7774240779   -0.0540064948
H    -2.6067158969    0.8619368746    0.2565537935
