14

N    -0.0645254135    1.3390798699    0.0108895463
C    -0.0157490767    0.0565823069    0.0032176275
N     1.1483001458   -0.7258041493   -0.0075556087
N     1.2503564039   -2.0690089997   -0.0158674811
C     0.1435457935   -2.7418313101   -0.0138129586
C    -1.1510532837   -2.1053961903   -0.0031813625
C    -2.3847273855   -2.9271667527   -0.0013019034
O    -2.3883986812   -4.1344537851   -0.0083401973
C    -1.2225215404   -0.7525193479    0.0050219029
H     0.8670601399    1.7583087567    0.0083067372
H     2.0414934855   -0.2551846583   -0.0096327679
H     0.2210580626    -3.821511267   -0.0204678069
H    -3.3283909047   -2.3398108155    0.0070786412
H    -2.1665517356   -0.2179860275    0.0131819914
