12

O    -0.1105074302    1.2227802157    0.0098858389
N     0.9883457389    2.0962401059    0.0038427985
C     2.1786988406    1.5765355985   -0.0104587891
C     2.3995998884    0.1812139169   -0.0199605831
C     3.4185576242   -0.7235275694   -0.0344691499
N     2.9330983219   -2.0406823025   -0.0368215251
C      1.625949027   -1.9993250858   -0.0244513632
C     1.1773580639   -0.6216727151   -0.0123799005
N    -0.0181043687   -0.1378532781    0.0017739633
H     2.9783742457     2.312588248   -0.0142185208
H     4.4848826019   -0.5488156431   -0.0437199562
H     1.0056571364   -2.8851177708   -0.0233511237
