14

O    -0.0482513054    1.2608976166    0.0091775498
C     1.0858976122    1.9970584329    0.0023055232
C     2.3378615143    1.4796540636   -0.0122898319
C     2.4496835822     0.072444438   -0.0207709459
C     3.4388525774   -0.8691698756   -0.0351888061
C     2.8086247538   -2.1755374623   -0.0359637261
C     1.4433186751   -2.0700504586   -0.0223375088
C     1.1535156618   -0.6604358661   -0.0123602519
N    -0.0246294047   -0.1185620901    0.0016860937
H     0.8405943584    3.0508244616    0.0101661792
H     3.1927196668    2.1451831081   -0.0169156118
H     4.5045436417   -0.6899450757   -0.0444186264
H     3.3589428576   -3.1084029403   -0.0460609671
H     0.7100445287   -2.8607085424   -0.0194100598
