15

C     0.0726784932    1.5259874641    0.0531002882
C    -0.1085234273    0.0452827934   -0.0458860559
C     -0.143364282   -0.6632745997   -1.2061745923
F    -0.0102313574   -0.0398368799   -2.3823838406
N    -0.3085214408   -2.0008040891   -1.2656716908
C    -0.4430700613   -2.6612540487   -0.1586279891
C    -0.4295373137   -2.0580840424    1.1751553763
N    -0.5534367934   -2.6181495158    2.3242559151
N    -0.2530294448   -0.6756786494    1.1119260583
H     0.9694136915    1.7742956418    0.6327587304
H     0.1729969694    1.9565321295   -0.9426592152
H    -0.7842450073    1.9943230352    0.5512366034
H    -0.5757096053   -3.7396404505   -0.2177763731
H     -0.674516037     -3.62306131     2.215205185
H    -0.2350575737   -0.2011905984    2.0042007103
