13

N    -0.1315388835    1.3365790212    0.0084615368
C     0.0100557412     0.072723987    0.0012986919
N    -1.1561222364   -0.7228307998     0.003462144
N    -1.2143045069   -2.0415788697   -0.0028514852
C    -0.0695864989   -2.6655664481   -0.0120649886
C     1.1650235428   -1.9277422316   -0.0148991175
C     2.4643673097   -2.7025007663    -0.025708879
O     3.5515664162   -2.1953012933   -0.0285478385
N     1.2160142907   -0.6329165618   -0.0086632794
H     0.7869299147    1.7762805344    0.0058148894
H    -2.0434721794   -0.2380581867    0.0106144183
H    -0.1017100038   -3.7480167528   -0.0173391603
H     2.3308400737   -3.8067298026   -0.0309583119
