12

N     0.2182285847     1.242881165    0.1901807309
C     0.0872022348   -0.1270829313    0.0428459389
N    -1.0552555826   -0.7437339179    0.0196508214
N    -0.7697103403   -2.1036319707   -0.0106136173
C     0.5640335288    -2.439155239   -0.0610493001
C     1.1786681869   -1.0788371974   -0.0053544105
N     2.4532393065   -0.8471672998    0.0538354531
N     3.5708812097    -0.680236376    0.1020475096
O     1.0700772263   -3.5381460134    -0.126378798
H     0.9044952286    1.6685496398   -0.4197667054
H    -0.6766988306    1.7112432341    0.1150931905
H    -1.5278613328   -2.7592361433   -0.0879407731
