15

N     0.0616432014    1.3339041959    0.1612805532
C    -0.0401026255   -0.0110668713   -0.0052476518
N     1.1032597661   -0.7280361189   -0.2032925407
H     1.8927384541   -0.4422152242    0.3601678858
H     0.9212893205   -1.7263347399    -0.200872332
N    -1.2195806065   -0.6054828613   -0.0000796715
C    -2.5148475251    -0.092539976    -0.029395607
C    -3.4173635067   -1.1808876009    0.0097947082
O    -4.6480169765   -1.2574607997   -0.0087599419
C    -2.4633964509   -2.3401224128     0.085657272
N    -1.2102337887   -2.0164315935    0.0800096414
H     0.8019654751    1.8059463003   -0.3335757043
H    -0.7946656317    1.8525219234    0.2686060668
H    -2.7037684402    0.9565450102   -0.1767523613
H    -2.7467504557   -3.3843846113     0.144455483
