16

C    -0.0205487552    1.4819922127    0.0069632839
N    -0.0417823506    0.0324535658    -0.118083919
C    -1.1492063015   -0.7028426501   -0.0014046662
N    -1.2091566864   -2.0010006153   -0.1085507203
H    -0.3864566702   -2.5635373959    -0.295554852
C    -2.3990868396   -2.7534553238    0.0212135228
N    -2.3733548411   -4.0826949357   -0.1033452368
C    -3.6914754001   -4.3223016937    0.0940513198
N    -4.4352804276   -3.2299291879    0.3165016254
N    -3.5669209289   -2.1777697318    0.2673996924
H      0.627469858     1.792031361    0.8324149999
H     0.3323989642    1.9478138556   -0.9182011855
H    -1.0328633281    1.8352606475      0.20907677
H     0.8355732264   -0.4311556526   -0.3051897162
H    -2.0956716569   -0.2093743467    0.1998053454
H    -4.1167617123   -5.3164011391    0.0747935763
