12

C    -0.0275060789     1.384064365    0.0944025767
N     0.0132064443    -0.060847443   -0.0733505852
N     0.1671948771   -0.5746395767   -1.2806236167
C     0.1653526523   -1.9592826931   -1.1011648617
O     0.2803003183   -2.8293672837   -1.9333339497
N    -0.1277988433    -4.208767012    1.5399837156
N    -0.0830518504   -3.1830572758    1.0697079905
C    -0.0140157359    -2.072650345    0.3837908035
N    -0.1018824579   -0.8382328024    0.9649451475
H     0.9075885766    1.8077623036   -0.2763871104
H    -0.8578335643     1.782901677   -0.4911805152
H    -0.1594102679    1.5937955161    1.1539158451
