17

C     1.3853300792   -0.1692349466    0.3418923533
C     2.8289574523    0.0816952444    0.0506389444
C     4.0177693588   -0.3876627872    0.8238699729
C     5.1148679415    0.5387077122    0.2860195386
C     4.4809385563    1.9270131946    0.1613077615
C      3.345177817    1.3943412807   -0.7649676225
N      4.053801731    0.8037078235    -2.012489541
C     4.5259152244       0.0197529   -1.1244012765
N     3.7003921038   -1.0332690908   -0.4947164831
H     0.9847478391    0.6281089634    0.9796515146
H     1.2449909679   -1.1249470619     0.853588748
H     0.8046364278    -0.188588318   -0.5856793658
H     4.0157798998   -0.9542618069    1.7468859149
H     6.1484122252    0.3889845462    0.5807185068
H     5.1076314023     2.648216401   -0.3650788067
H     4.1285728987    2.3398241576    1.1102756503
H      2.564692015    2.0565805378   -1.1308626896
