18

C     0.0076125019    1.5337073916   -0.1061714002
C    -0.0478831181    0.0061323049    -0.138577476
C     -1.455920137   -0.5398666084    0.1727706046
N    -2.4528649878    -0.134447139   -0.8479321059
C    -2.5156850565   -1.1936013842    -1.873939913
C    -2.1624780055   -2.4929000649   -1.1620850636
O    -2.3561216362   -3.6259210519   -1.5082398204
C    -1.4688645856   -2.0643991387    0.1673043782
O    -1.0277012098   -2.8221423118    0.9886696988
H     1.0026818542    1.8950812618    -0.381424448
H    -0.7203016702    1.9569875569   -0.8032382565
H     -0.222545927    1.9144436322      0.89516668
H     0.2708530378   -0.3571760319   -1.1242845238
H     0.6457865371   -0.4277554821    0.5903607808
H     -1.764175156   -0.1742623241    1.1574556036
H    -3.3621304434   -0.0488811212   -0.4086274412
H    -3.4998428984   -1.2468977931   -2.3443333551
H    -1.7855633795   -1.0026183159   -2.6729121925
