14

N     0.0152494272    1.3642158685     0.007694672
C     0.0564649433    0.0372257832   -0.0001036911
N     1.1370581061   -0.6828150424   -0.0117816693
H     2.0731041482   -0.2913647831    -0.016111626
C        1.1133934   -2.1107476373   -0.0197425568
N    -0.0340607052   -2.7321041385   -0.0154504651
O     0.4270583757   -4.0818569344   -0.0262080315
C     1.8413672465   -4.0649550811   -0.0357679376
N     2.5534396249   -5.1217540651   -0.0466431798
N     2.2661320827   -2.7486859725   -0.0312430537
H     0.8475259701    1.9334574957    0.0050572426
H    -0.8724264106    1.8371304777    0.0166468718
H    -0.8763566566   -0.5216595113    0.0032797829
H     1.9459511778   -5.9396783393   -0.0471261683
