13

C    -0.4333935645    1.5003304932    0.0802636176
C     0.2416161485    0.1580807608   -0.0397241739
O     0.9876786751    0.0609431347   -1.2529711297
C      2.197173351    -0.553527383   -1.0086873858
C     2.2553316984   -0.6393912326    0.4425918406
O       1.17931533    -0.018624547    1.0359096595
N     3.2006538396   -1.1688874172     1.139102166
N     4.0513043219   -1.6450823048    1.7355526841
O     2.9667566913   -0.8903143209   -1.8592115425
H     0.3115357883      2.29770307    0.0313741295
H    -1.1518668962    1.6258399371   -0.7332743221
H    -0.9643157476    1.5590011443    1.0337551402
H     -0.477282126   -0.6743109347   -0.0160442335
