15

O     1.6094911681    0.5557861566    0.9431246348
C       2.68864049    0.1344217733    0.2268373697
C     4.0767186809    0.5588318188    0.6116219152
C     3.5801579435    1.0804353732   -0.7061878764
C     4.1804382247   -0.1797442049   -1.3141651049
N     3.3330007806   -1.0292998358   -1.8066639993
C     2.8623802953   -1.4018213568   -0.4353012947
C     4.1489185998   -1.8080464891    0.2849039973
N     4.8533700843   -0.5285666764    -0.049682427
H     0.8198575936    0.4702303818      0.39514598
H     4.4201286005    1.0474372418    1.5145401347
H     3.3043446434    2.0602033161   -1.0652733637
H     1.9699576089   -2.0281349129   -0.4245152425
H     4.6507465937   -2.6646897542   -0.1669012312
H     4.0749854327   -1.9246031715    1.3673892979
