18

C    -0.1105714888    2.0008321951   -0.2443407567
C    -0.0773341794    0.5372734531    0.2198894838
C     0.8753199677   -0.3452743903   -0.6079532112
N     0.2558313757   -0.7544348665   -1.9601006637
H    -0.5953212983   -1.2943463723   -1.7885860857
H      0.006972993    0.0568790945   -2.5302579221
H     0.8991581634   -1.3451758042   -2.4920934481
C     0.3984538698    0.3061339548     1.597753142
C     1.0291741057   -0.5323086001    2.2270841934
C     1.8018673415   -1.8050233911    2.5314835501
O      1.864138698    -2.415048027    1.4229650784
O     2.2184854985   -2.0676741688    3.6467139324
H     0.8800557572    2.4559015329   -0.1518337419
H    -0.4421340801    2.1033102647    -1.288563493
H    -0.8022987418    2.5760621657    0.3752326634
H    -1.0985555099    0.1270596259    0.1294424179
H     1.7988930747    0.1816891774   -0.8571490732
H     1.1217954132   -1.2819299238   -0.0730817957
