15

C    10.3817962605   -1.3506437928   -0.1677994006
C     9.1487821744   -0.5304784232    0.1405700096
C     7.7695012815   -1.2567384813    0.1114267369
N     8.2920901153    -0.721216166    1.3537313635
C     7.7596613084    0.5142340376    1.6826383725
N     8.5660157284    1.5029880844    1.1206849873
C     9.2018813813    0.9318319493    0.1222581802
C     6.6094004396    -0.716269368   -0.5362814996
C     5.6285827524   -0.3352320666   -1.1165137404
H    10.2497671429   -2.3811123312    0.1708238135
H     11.263066908   -0.9424050141    0.3341604301
H    10.5764189382   -1.3696659094   -1.2451925796
H     7.8642897755   -2.3384431564    0.0118020027
H     9.7790277441    1.5117557758   -0.5934802796
H     4.7609009595    0.0272321019   -1.6112934166
