16

N     0.0263875871    1.6150981541   -0.0762229123
C     0.2727693202    0.2984850823    0.1600874114
N    -0.0716803517    -0.365721735    1.2134508307
O     0.4444819823   -1.7007699289    1.0837692404
C     1.1052376864   -1.8291914128   -0.1063789865
C     1.6949974771   -2.9522649948    -0.519187324
N     0.8877587848   -4.6687559321    2.2411835589
H     1.4890004704   -4.8057233536    3.0492640822
H     0.5199780327   -3.7228235977    2.3177550375
H     0.0963239505   -5.2930256363    2.3720845626
C     1.0379369239   -0.5322052511   -0.8103085017
O     1.4564325657   -0.1906213118   -1.8947684052
H     0.1207556082    1.8904506065   -1.0426461441
H    -0.7140287826      2.05899037    0.4435178881
H      1.685178305   -3.8529275787    0.0875579364
H     2.1883339001     -2.93935939   -1.4838717646
