11

O    -0.9953542395    1.3617893324   -0.2494023804
C     0.1512284815    1.0538900522   -0.4237523713
C     1.3395285059    1.9417636188   -0.1666802211
N      2.492250487    1.4165160192   -0.4205857434
C     3.6022162828     2.199416283   -0.1973267141
N     3.6285429694    3.4125551359     0.241409409
O      2.411192225    3.9887756235    0.5171923559
C     1.1914908167     3.325513093    0.3436811869
O      0.186993153    3.9078470169    0.6104252898
H     0.4715981165    0.0610017567   -0.8014587927
H     4.5712109418    1.7625615585   -0.4090066487
