13

N    -0.1659096825    1.3156305507    0.0080977704
C     0.0078872537    0.0540853235    0.0011521241
N    -1.1361034675   -0.7661897936    0.0029473303
N    -1.1569822455   -2.0889577134   -0.0034630241
C    -0.0025892562   -2.6852452386   -0.0122163127
C     1.2236404605    -1.915498293   -0.0145574038
N      1.233813474   -0.6133001065   -0.0082423349
C     2.4637597854   -2.6260653922   -0.0243003475
C     3.4770813992   -3.2744444134   -0.0325921144
H     0.7423867542    1.7756877794    0.0057541521
H    -2.0354768317   -0.3056994421    0.0097215272
H     0.0029777102   -3.7669350547   -0.0175870619
H     4.3845288563   -3.8276607661   -0.0398618948
