13

N     0.0049429485    1.2748948676    0.0093537235
C     1.1490819258    2.0343597068    0.0021826208
N     2.3497810217    1.5428707042   -0.0122161972
C     2.4014472898    0.1810422294   -0.0200132542
C     3.4069631552   -0.7437940932   -0.0346869598
N     2.8853585674   -2.0358627804   -0.0365907508
C     1.5679679873   -1.9785224468   -0.0236357629
C     1.1459632572    -0.612560035   -0.0119376127
N    -0.0371612108   -0.0658974483      0.00259678
H    -0.9007656031    1.7198013083    0.0206033439
H     0.9828378614     3.107255889    0.0095642607
H     4.4748727773   -0.5860991616   -0.0441971249
H     0.9444748422     -2.86201506   -0.0224065065
