13

O    -0.1094108193    1.2836956087    0.0100332685
N     1.1531071187    2.1153164724     0.002263459
N     2.2244497952    1.5149604625   -0.0111897585
C     2.4133548536    0.1460215991   -0.0201794137
C     1.3459751703   -0.6856850617   -0.0142861957
C     1.1096523814   -2.0796165811    -0.019424794
C    -0.2657838333   -2.2451107494   -0.0068555251
C    -0.9695518754     -0.99182428    0.0063940373
C    -0.0026485748   -0.0253128215    0.0021487541
H     3.4510818327   -0.1615953486   -0.0318270991
H     1.8591572995   -2.8552910109   -0.0308077339
H    -0.7663503959   -3.2062248125   -0.0070569954
H    -2.0380203725    -0.849896557    0.0174137065
