14

N      0.032039123    1.3165021682    0.1723343768
C      0.001320183   -0.0437684835    0.0065020926
N     1.1929704025   -0.6895016909   -0.1393529766
H     1.1491515168   -1.6975683729   -0.1193924219
H     1.9938018252   -0.2859062942    0.3230888258
C    -1.1911328071     -0.73030766   -0.0015738752
N    -2.4174761472   -0.1730799488   -0.0102650074
N    -3.3057844281   -1.1135728691      0.00747313
C    -2.6286965341   -2.3556216485    0.0198588612
N     -3.065982347   -3.5420390808    0.0291918843
O    -1.2629465471   -2.0955736193    0.0146766629
H     0.7104192785    1.8099992467   -0.3921963744
H     -0.886695875    1.7409057614    0.1698746302
H    -4.0841645933   -3.5111414883    0.0298530819
