12

O    -0.0967775845    1.3180672957     0.010266556
N     1.0897926752    2.0546788171    0.0026255496
C     2.1955016583    1.3680521801   -0.0118599795
N     2.4072076139    0.0091325767   -0.0212177207
C      1.307724304   -0.6767019593   -0.0141307021
N     1.1486940108   -2.0293436026   -0.0199284615
C    -0.1717827753   -2.1862486858   -0.0077196619
C    -0.9671788452   -0.9809216631    0.0064697487
C    -0.0219043733    -0.003933266    0.0024614901
H     3.0795415039    1.9981078873   -0.0171371319
H    -0.5928583927   -3.1870034409   -0.0090429089
H    -2.0416730551   -0.9033068592    0.0173722422
