14

C     0.0793213763     1.435501549    0.0646232837
N    -0.0090831607   -0.0078057281    0.1517901291
C    -1.1374901761   -0.5819247878    0.0703325637
N     -1.160998416   -1.9893283863    0.1616226861
N    -2.2395677649   -2.7697370789    0.1000010144
C     -3.354815576    -2.155277151   -0.0590258111
F    -4.4685554462   -2.8728701671   -0.1286419685
C    -3.4376470376   -0.7230989395    -0.163827254
N    -2.3921084406     0.026324234    -0.103377805
H      0.737324774    1.7078460246   -0.7696563074
H    -0.8856372682    1.9360320343   -0.0713573414
H     0.5519931556    1.8245793265      0.97477252
H    -0.2777728237   -2.4621134405    0.2868892245
H     -4.414556296   -0.2587325593    -0.298405724
