20

N    -0.7581890945     0.604376802   -0.2736251516
H    -0.4103905826   -0.2148689363    0.2387914822
H    -0.0895348111    0.8703465816    -0.998091149
H    -1.6400439655    0.3197935269   -0.7096839385
C    -1.0459031578    1.6961077453    0.7666857398
C     -1.939480031    1.0290254915     1.773668721
C    -1.3754691277    -0.175662533     2.577024277
C    -2.3743028043    0.2424098092    3.7006192323
C    -2.3480516567    1.6892215959    3.1100569178
C    -3.7906174904    -0.436735863    3.4936818624
O    -4.4276224759   -0.6328657835    4.5327590735
O    -4.0907511993   -0.6699024675    2.2895993695
H    -0.0688484015    1.9967896484     1.157824266
H    -1.4967818886    2.5310002764    0.2230191366
H    -2.8703001313    0.6615782373    1.3169792957
H    -1.5339486384   -1.1744325454    2.1587952084
H    -0.3230764066   -0.0269008487    2.8641713266
H    -2.0472219075    0.1309396025    4.7332919962
H    -1.5393819053    2.3005451268    3.5312247209
H    -3.2784538742    2.2611271237    3.1176841831
