10

N    -0.2812877023    1.1747086765    0.0103124489
C     0.0053591872   -0.0395301913    0.0027036151
O     1.2493988191   -0.6249335956   -0.0070096069
C     1.1381884622   -2.0213400539   -0.0133608661
C    -0.2931875651   -2.2178521129   -0.0065902557
O    -0.9626145891   -1.0109434145    0.0030977572
N     -0.938095058   -3.3360815939   -0.0085466959
N    -1.4778890263   -4.3383427543   -0.0105952462
O     2.0698276754   -2.7631880508   -0.0221352491
H      0.555067277    1.7523678509    0.0086311786
