15

C     0.3043330689    1.3004121454     0.127792956
O     0.2390988157   -0.1152501609    -0.005766552
C     0.4732485304   -0.5682956335   -1.3027429882
O     1.8146501349   -0.3824466612   -1.7284705991
C     2.6447415124   -1.4022755987   -1.1557883686
C      1.753036296   -2.6294402248   -1.0644427317
O     2.0581549587   -3.7712065687   -0.8638909894
C     0.3107334414   -2.0924667101   -1.2732887784
O    -0.6849405939   -2.7440013252   -1.3991403673
H     1.2949366761    1.6812298376   -0.1436260093
H    -0.4517882016    1.7876274115   -0.5033694289
H     0.0987353995     1.526124994    1.1752836103
H    -0.1654016801   -0.0682554464   -2.0410054037
H     3.4974501194   -1.5691995945   -1.8176804503
H     3.0159917023   -1.1180750345   -0.1617793894
