13

N    -0.0918071687    1.3406922629    0.0086134669
C     0.0285897371    0.0743904141    0.0011120781
N    -1.1474510307   -0.6980606109    0.0038396762
N    -1.2397082013   -2.0133732322   -0.0026980008
C    -0.1052248362   -2.6754897771   -0.0129329976
C     1.1459804515   -1.9412578124   -0.0163758217
N     1.2237974906   -0.6544672027   -0.0098984647
C    -0.1190980488   -4.0940800422   -0.0204572869
C    -0.0601135714   -5.2963771067   -0.0272792351
H     0.8340290079    1.7644297566     0.005406922
H    -2.0252658377   -0.1959473299    0.0117018713
H     2.0759300032   -2.5087197732   -0.0249056199
H    -0.0285884555   -6.3581230363   -0.0332356678
