14

N    -0.0002482268    1.3015149442    0.0073401068
C     0.0029413577   -0.0371559152    0.0000123368
N    -1.0752545785   -0.7974790039    0.0022923826
H    -2.0256171275   -0.4528417896     0.009822402
C    -0.6989846741   -2.1717693604   -0.0073260998
C     0.6691205854   -2.2712476975   -0.0159859391
C     1.2697082064   -0.8954808865   -0.0120422256
N     0.9650135672   -3.5772506223   -0.0245671599
N    -0.2250120431   -4.2172641958   -0.0222286403
N    -1.2803551353   -3.3625367061    -0.010085661
H     0.8718649575    1.8011720719    0.0050411804
H    -0.8489642828    1.8423677794    0.0153687871
H     1.8677157514   -0.6378830165   -0.8964354217
H     1.8780024125   -0.6474694216    0.8680644519
