12

O    -0.0934116982    1.3056439469    0.0097407576
N     1.1412673195    2.1115915763    0.0023714778
N     2.2287161117    1.5310734587   -0.0109881108
C     2.4153415697    0.1488258847   -0.0200690947
C     1.3473146377   -0.6665080583   -0.0143605944
C     1.0437843622   -2.0665946065   -0.0192479536
N    -0.2581152321   -2.2494186022   -0.0073855292
C    -0.9121181181   -1.0152140403    0.0053064981
C     0.0125616891   -0.0174609851    0.0017008245
H      3.453932728   -0.1567535871    -0.031666343
H     1.7450993475   -2.8891559827   -0.0304598195
H    -1.9880799271   -0.9552532543    0.0159568373
