13

C    -0.0075588294    1.5169094603   -0.1848251174
N     0.0267552395    0.0892526241    0.0320271765
N     0.2120662541   -0.7741522864   -1.0197338072
C     0.2025151919   -1.9820195528    -0.543092849
C     0.0046837237   -1.9540782811    0.8816910042
C    -0.1149263304   -0.5256290284    1.2695682251
O    -0.2878575258     0.004455954    2.3474166437
N    -0.1311631335   -3.7841935115    2.4740555457
N    -0.0648542835   -2.9467895816    1.7182874213
H     0.9366943349    1.8663330814   -0.6125841504
H    -0.8260053046    1.7862313071   -0.8587554642
H    -0.1646567739     1.982697973    0.7891426193
H      0.330109337   -2.8463248281   -1.1770186076
