16

C    -0.0125821527    1.5423741391    -0.055395999
N    -0.0142967376    0.0996018275    0.1499915069
C    -1.3088588761   -0.5454002454    0.0316614935
C    -1.8518278166   -0.7350175685   -1.3740043289
C    -2.2229305846   -1.9945416538   -1.6604273863
C    -1.9888407307   -2.8861429035   -0.5108721002
O    -2.2477634143   -4.0574643726   -0.3838214406
C     -1.303005614   -1.9962236456    0.5662736197
O    -0.8344898917   -2.3878897961    1.5960002189
H     1.0089680851    1.9162895516     0.053910687
H    -0.3925704537    1.8782665682   -1.0354299347
H    -0.6247841565    2.0167835316    0.7194609163
H     0.6659063996   -0.3540903693   -0.4496208344
H    -2.0191303247    0.0324021322    0.6404831663
H    -1.9030055331    0.0943005976   -2.0725896426
H    -2.6265836184    -2.348454763    -2.601201092
