14

N    -0.1688165594    1.2345162608    0.2530889419
C     0.0018694799   -0.0092704744    0.0475102536
N     1.0953414219   -0.7781440409   -0.3031026485
N     0.6884475862   -2.0541508223   -0.4056627033
C    -0.5867144096   -2.0715083602   -0.1332794123
N     -1.383001826   -3.1885031538    -0.036303757
C    -0.9493138874   -4.4269013966    0.1205783134
N    -1.7138706953   -5.5174864866   -0.1417791056
H    -2.7076291038   -5.4105191274   -0.2812778343
H    -1.4373352883    -6.386789608    0.2865197248
O    -1.1243007921    -0.875178292    0.1638773581
H     0.7285667299    1.7002809848    0.1310666313
H    -2.3806190429   -3.0167667809   -0.1244324529
H      0.104447607   -4.5565337926    0.3285114707
