15

C        0.1921145    1.5075069323   -0.1487662399
C    -0.1046514053    0.0146081869    0.0512904637
N     0.3306100796    -0.795375966    -1.112752517
C     1.7202310801    -1.230490088   -0.8666906845
C     1.8590654497   -1.3584683832    0.6445672587
O     2.6871669465   -1.9451592743    1.2857442167
C     0.6653320454   -0.5508933223    1.2422908523
O     0.4407093168   -0.4203002994    2.4149603112
H     1.2608109137    1.6859192442   -0.3066544705
H    -0.3443908331    1.8746271739   -1.0268731396
H    -0.1200457376    2.0754274468    0.7319280683
H    -1.1776239572   -0.1190980128    0.2152873676
H    -0.2592357099   -1.6178107705   -1.1780131754
H     1.9484398606   -2.1703804948    -1.373689395
H     2.4309776706   -0.4802172326   -1.2402454966
