14

N     0.0873068419    1.4326933178     0.095366883
C    -0.0191775745    0.0414363067   -0.0264477809
C    -1.1883820995   -0.6488331433   -0.0739227228
N    -1.1596262522   -2.0141120265   -0.2757802091
C    -0.0060883517   -2.7577592344   -0.4392973297
N    -0.0503213092   -4.0272886909   -0.6241569387
C      1.169225985   -1.8820925654   -0.3591258641
F     2.3295404972   -2.5137155597   -0.4930713056
N     1.1827692185   -0.6223971542   -0.1732529828
H     0.9910694089    1.6978646675    0.4640009878
H    -0.6592049721    1.8610336584    0.6251739253
H    -2.1647085696   -0.1966945499    0.0295366812
H     -2.020065015   -2.5401751961   -0.3102785435
H     0.8932516824      -4.3936779   -0.7208597501
