13

N    -0.0562516442    1.2536312434    0.4133355004
C    -0.0095104404    0.0297628086    0.0507728138
N     1.1204711442   -0.6802688173   -0.3542125267
N     1.1722681573   -1.9684173951   -0.7364378622
C     0.0381720535   -2.5984242634   -0.7187034996
N    -1.1784639609   -2.0783168815   -0.3532879633
C    -1.2161865056   -0.8302665502    0.0147723635
C    -2.4561798817   -0.2511332415    0.4014678418
C    -3.5119398692    0.2257966515    0.7260315262
H     0.8618835616    1.7004263645    0.3806047957
H     2.0120597197   -0.2059212852   -0.3742484902
H     0.0555759976   -3.6374663261   -1.0227031771
H    -4.4407957519    0.6537133824    1.0139630077
