20

C     0.1138955412      1.53806489   -0.2202013759
C     0.0073717561    0.0502705413    0.0161389599
C     1.2476856022   -0.7981306526    0.0764664755
C     0.4092353217   -0.5917733584    1.3338879966
C     0.9963906171    0.1751691542    2.4549544161
N     2.1303014479   -0.7018805203    3.0663400585
H     2.7330092519   -0.9754908441    2.2827009801
H      2.682994122   -0.2453775569    3.7970623864
H     1.7230226409   -1.5618088212    3.4405623065
C    -1.2450086989   -0.6836405846   -0.6289015387
O    -1.8892459894    0.0231685563   -1.4135774795
O    -1.3783205681   -1.8677199225   -0.2554568289
H     1.0806763523    1.9670364233     0.080939838
H    -0.0331638043    1.7204918364   -1.2864369068
H    -0.6853364524    2.0774344816    0.2983794035
H     1.1932373192   -1.7832931767    -0.372403677
H     2.2135103472   -0.2924621426    0.0104408356
H     -0.251551726   -1.4227458848    1.5778700022
H     1.4913387729    1.1002188068    2.1516650334
H     0.3140285367    0.3772921946    3.2845150745
