11

N    -0.0632025189    1.2722405115    0.1289045705
C     0.0085657553    -0.080167997    0.0389939816
N    -0.9787487858   -0.9108830658   -0.0134267954
C    -0.3274342992   -2.1493729453    -0.016458485
C     1.1190364145   -2.0121708325    0.0244303267
O     2.0465418629   -2.7634226388    0.0290798663
N    -1.4412877963   -4.3158338009   -0.0916565741
N    -0.9363883509   -3.2994768756    -0.055641077
O     1.2691863926   -0.6008317147    0.0606662008
H     0.7467441713    1.7862189196   -0.1797776165
H    -0.9580921556    1.6713930095   -0.1073215179
