12

N    -0.0381754804    1.4544591449   -0.4945078889
C    -0.0313143367    0.2050512317   -0.0379182194
C    -1.2829134081   -0.4762515539     0.353789923
C    -1.3911107611   -1.7242946762    0.8938133761
O    -0.3986444082   -2.6369235451    1.3184309791
N     0.7467567575   -2.0037672919    2.1446656053
N     1.5107868444   -1.1263519708    1.5710836707
C     1.2597320196   -0.6525802548    0.0817357127
O     2.1442941177   -0.8407760774   -0.7711856717
H     0.9761387928    1.6696052854    -0.793659221
H    -2.2112622833    0.0550036054    0.1066572942
H     -2.394757944   -2.1765248672    1.0154272599
