12

N     0.2859539625    1.2710973635    0.1870032803
C     0.0685896253   -0.0998267186    0.0232367085
C    -1.0721386615   -0.8134306709   -0.0272024981
O    -0.8535716266   -2.1867144301   -0.0701348755
C     0.5027326606   -2.4349788455   -0.0712258206
C     1.1236136225   -1.1007456901   -0.0049538666
N     2.4078456819   -0.9194262418    0.0706640337
N     3.5313048781   -0.7857932984    0.1342443239
O     0.9806107543   -3.5330300598   -0.1148893384
H     0.9186108247    1.6598021993   -0.5041374674
H    -0.5773277192    1.8000770172    0.1763547477
H    -2.1052446926   -0.5082269448   -0.0213501975
