14

N    -0.1740254502    1.4908372971    0.1257365709
C     0.0447000074    0.1485481759   -0.0000137446
N    -0.9084318328   -0.7400831735    0.0116928666
H    -1.8880294695   -0.4306597703    0.0362235187
C    -0.9002847477   -2.1181230267    0.0013201842
C    -2.1711676613    -2.759565696    -0.012164129
O    -3.2903624029   -2.2682246333   -0.0152129443
O    -1.8991227196   -4.1080159082   -0.0182010638
N    -0.4959473259   -4.3250548028   -0.0075855317
C     0.0641288259   -3.1401926257    0.0051504386
H     0.5437466656    2.0993198479   -0.2350952085
H    -1.1124824151    1.8386573877   -0.0097148138
H     1.0715843181   -0.1902452921   -0.0395936269
H     1.1448105482   -3.0809525102    0.0171634235
