19

C     -1.430214176    1.4639924898   -0.3632215789
C    -1.2921068452    0.0700987999    0.3308510574
C    -1.0380827346    -1.184402065   -0.6479446818
C     0.1488232568   -1.9340570465   -0.2808166047
O     1.2935348711   -1.3469353929   -0.0123156862
C     1.2737800945     0.012313547    0.4529703664
C     1.2058700208    1.1678627456   -0.6120337571
C     0.0022637146     1.804660766    0.1311779946
C    -0.0341889937    0.5267710409    1.0144039234
H    -2.1846837726    2.0973836414    0.1113839642
H    -1.6132566144    1.4773214122   -1.4430211754
H    -2.1321551709   -0.2416283307    0.9563335191
H    -0.9225341852   -0.7137636145   -1.6325894678
H    -1.9013545644   -1.8519348392   -0.7158703496
H     0.1957693278   -3.0155854539   -0.2292354291
H     2.1562377056    0.0501979633    1.0939532125
H     0.9830282272    0.7924878479   -1.6129539762
H     2.1171552554    1.7707619564   -0.6673655668
H     0.1743551631    2.8071862325    0.5287997458
