14

C    -0.1058580971     1.584106637    0.0138047174
C     0.0166245527    0.0526280358    -0.011563188
C     0.8235247134   -0.5047999146   -1.1609394051
C     1.8532396181   -1.2851339044   -0.7937508233
C     1.9294336226   -1.3913892825    0.6742413193
O     2.7013316327   -2.0122124474    1.3620156188
C     0.7658946644   -0.5003935027    1.2062082745
O     0.5320052293   -0.2771200982    2.3617152196
H      0.880431073     2.057768658   -0.0009270876
H    -0.6714181249    1.9455706841   -0.8500163121
H    -0.6217126059     1.896299545      0.92513074
H    -0.9957797511    -0.375982187   -0.0173027488
H     0.5682208116   -0.2706438339   -2.1902189194
H     2.5508568412   -1.7820626592   -1.4556720252
