17

C     0.1329198767    1.5420742786   -0.1315099429
C    -0.0747186614     0.029441612    0.0665476647
C      0.657263196   -0.5021037218     1.260620605
C     0.1469198484    -0.992869545    2.4062635528
C       1.17047734    -1.442790209    3.4168476623
C     2.4938209934   -1.1646563331    2.7045598179
O     3.6046325616   -1.3641254806    3.1103444807
C     2.1347298443   -0.5585519058     1.317195465
O     2.9340218101   -0.2201232074    0.4768217455
H     1.1938946113    1.7699115164   -0.2581957002
H    -0.4005209765     1.886860339   -1.0218757329
H    -0.2409953703    2.1062010549    0.7286909436
H    -1.1424458567   -0.1974799669    0.1597904798
H     0.2906189969   -0.4942910036   -0.8253343819
H    -0.9180933737   -1.0710586255    2.6053088242
H     1.1137875905   -0.8894569583    4.3624546387
H     1.0834097693   -2.5054071139    3.6748705877
