17

C    -0.0739674247    1.5469422952   -0.1103960287
C    -0.0522298916    0.0177593942   -0.0917169124
C    -1.4380458709   -0.5824892362    0.1966462854
O     -2.417149774   -0.2049173397   -0.7835842697
C    -2.5916557022   -1.2264431311   -1.7599294841
C    -2.1678547439   -2.5267412792   -1.1042937269
O    -2.3391935278   -3.6534675261   -1.4780406297
C    -1.4069258098   -2.0996069944    0.1818648763
O    -0.8761881725   -2.8439799026    0.9598326486
H      0.913306076    1.9476619358   -0.3568111628
H    -0.7892399648    1.9127407319   -0.8516941089
H    -0.3668237447    1.9477352203    0.8659760266
H     0.3138751067   -0.3659106196   -1.0528217149
H      0.633200114    -0.358476217    0.6765353798
H    -1.7994682303    -0.223689048    1.1675139796
H    -3.6413319491   -1.2521336884   -2.0673165567
H    -1.9786469303   -1.0480098151   -2.6583254814
