13

O     0.0424200102    1.3604779791     0.279674739
C    -0.0109287508    0.0251830464    0.0455864724
C    -1.1884339456   -0.6375214096    -0.051138504
N    -1.1613580969   -1.9943770256    -0.290464516
C    -0.0072461624   -2.7446757537   -0.4421171051
N    -0.0591615882   -4.0073083914   -0.6636412763
C     1.1748540045   -1.8850358595   -0.3107058064
F     2.3329429525   -2.5166292714   -0.4414960293
N     1.1875317664   -0.6279206859   -0.0896280392
H     0.9776892224    1.5962341995    0.3057438884
H    -2.1537838349   -0.1645598421    0.0484919881
H    -2.0239965956   -2.5127660884   -0.3671976036
H     0.8819903783   -4.3835521875   -0.7458075979
