15

C     0.6145824278    0.8847212703    0.2846548904
N    -0.4803774886    0.3052127966   -0.4933616558
C    -0.0473248542   -0.5135215617   -1.6000409214
C     0.4941749132   -1.8854349294   -1.2160171902
O     0.4177722159   -2.3692179377   -0.1142577984
C     1.1455247908   -2.7073271673   -2.3482073726
O     1.2839903634   -2.2885671471   -3.4682200516
C     1.5960404184   -4.0543424252   -1.9562119553
N     1.9602942677   -5.1177497437   -1.6860530698
H     1.3159633836    0.1485695353    0.7069618955
H     1.1817599059    1.5741190755   -0.3505305849
H     0.1941793458    1.4656516514    1.1096857233
H    -1.0725061708   -0.2468014002    0.1187290208
H    -0.8798742923   -0.6956338357   -2.2974867815
H     0.7079400935    0.0127662589   -2.1952941584
