13

O     0.0412332654   -0.0255427377    0.0036509603
C     0.0274191805    1.1805162129    0.0096684065
C    -1.2055831518     2.087134033    0.0311991387
C    -0.8321770917    3.3761401483    0.0321810286
C      0.656855314    3.4400378046    0.0117806017
C     1.1351882471    2.1651323686   -0.0010174992
O     2.4853981384    2.1361149535   -0.0199815021
C     2.8714010143     3.440019402   -0.0190977059
C     1.7928659095    4.2916767893    0.0000992168
H    -2.2071112075    1.6818353041    0.0432098354
H    -1.4863994254    4.2382717497    0.0454448633
H      3.936064908    3.6081302708   -0.0331445112
H     1.8414671893    5.3693345009    0.0046425072
