11

O     0.0039026287   -0.0095052476   -0.0742623541
C    -0.0404145912    1.1875139486   -0.0250235879
C    -1.2468245573    2.1012225315    0.1002669498
O    -0.7896444345    3.4051447552   -0.2463093496
C     0.5895486986    3.5390125691     0.084216792
C     1.1858047387    2.1475836716   -0.0357420536
O     2.3366448282    1.8169178249   -0.0946538367
H    -2.0537857854    1.8148250365   -0.5787394193
H    -1.6327668523    2.0637374157    1.1333285257
H     1.0537659617    4.2478863728   -0.6058989672
H     0.7297034449    3.9134343416    1.1126806309
