10

O    -0.0121603893    0.2708908358    -0.787757867
C    -0.0155240606    1.2217885607   -0.0646691931
N    -1.1885588261    1.7990526908    0.4814516516
C     -1.418739968    3.0211498889    0.2046634737
N    -0.6895793155    3.8723294951   -0.6706348873
N     0.5696747798    3.8895046652   -0.6873626685
C     1.3447645998    3.0588402184    0.1679514294
N     1.1554233959    1.8310220231    0.4503145582
H    -2.3273821143    3.4993604325    0.5689828215
H     2.2493800785    3.5617839395    0.5081912716
