12

O    -0.0342658329    0.0347353287   -0.2337931708
C    -0.0682844571    1.2176901957   -0.0342477655
C    -1.2626483973    2.1146588214    0.2706415038
N    -0.8282398698    3.4883409712   -0.0529875295
C     0.6144648511    3.5570836005    0.2541342569
C     1.1703229654    2.1694657613   -0.0451190506
O     2.3023811107    1.8302592819   -0.2542669236
H    -2.1492342036    1.8205891598   -0.2943577814
H      -1.51248103    2.0442535773      1.33929946
H    -0.9550302091    3.6419510245     -1.04839973
H     1.1205854676     4.333193408   -0.3231289862
H     0.7586281449    3.7894548096    1.3193210669
