13

N    -0.1096128636    1.2937056383   -0.3231877043
C     0.0169967942    0.0678997097    0.0191860731
N    -1.1204913728   -0.6530759442    0.3879924526
C    -1.0749245899   -1.9689799001    0.7680736642
C     0.1196891435   -2.6256926221    0.7958650908
N     1.2891244295   -1.9918570499    0.4481991147
C     1.2359727026   -0.7509903667    0.0912112234
C    -2.3038903572     -2.59959569    1.1230095642
N    -3.3060399725    -3.102911731    1.4092351319
H     0.7951895689    1.6933118662   -0.5654955265
H    -1.9985646822   -0.1528762064    0.3624220861
H     0.1789946637   -3.6635513046    1.0924106911
H     2.1676757057   -0.2572918794   -0.1824598915
