14

N    -0.0094996093    1.3384430237    0.0099793746
C     1.1619286155    2.0795809335    0.0022090447
N     2.3449047079    1.5622181116   -0.0125538236
C     2.4137257373    0.1980707591   -0.0207386274
C     3.4707941095   -0.6804037582   -0.0359330658
N      3.024284695   -1.9872947469   -0.0388129211
C      1.698505841   -1.9839425771   -0.0257093976
C     1.2030867459   -0.6506619771   -0.0131896591
C    -0.0031604888   -0.0250365978    0.0024464497
H    -0.8886607264     1.831382224    0.0215279899
H     1.0222193474    3.1555548179    0.0095271567
H     4.5273320691   -0.4560617755   -0.0451248642
H     1.1252809011   -2.9022740187   -0.0251278836
H    -0.9712219752   -0.5133399185    0.0094528366
