16

C     0.0938863228    1.5257766055    0.0086053299
C    -0.0563613565    0.0511961063     0.153443566
C    -1.2176199812   -0.6469716065    0.1215760817
N    -2.4771230425   -0.0427873838   -0.0650904216
N    -1.2320106904   -2.0115869088    0.3497154859
C    -0.1100425697   -2.6108329563    0.5428044266
C     1.1955704839   -1.9514565361    0.5133145257
N     2.3522248102   -2.4665841249    0.6399413912
O     1.1349223256   -0.5929847815    0.3262226173
H     0.8633938946    1.8920801662    0.6946898443
H     0.4019421636    1.8086296111   -1.0062443316
H    -0.8536235811    2.0206187711    0.2337965828
H    -2.5406189059    0.5116964812   -0.9093180966
H     -3.193705334   -0.7581655722   -0.0759404041
H    -0.1185816757   -3.6819868976    0.7387518232
H     2.2678307262   -3.4723406037    0.7781965393
