13

O    -0.0380595508    1.3609444391     0.010305746
C     1.1450664454    1.9956827545    0.0017793758
C     2.3399710455    1.3464421138   -0.0139025462
N     2.4566539316   -0.0262574407   -0.0225918664
C     1.3264566631   -0.6643585664    -0.014619365
C     0.9863463509   -2.0674491766   -0.0185422299
N    -0.3137502331   -2.2211044256   -0.0065852029
C     -0.937681673   -0.9544069708    0.0066323827
C     0.0120883521    0.0047499293    0.0023759325
H     1.0307175018    3.0714593472    0.0088136271
H     3.2580959183    1.9204242328   -0.0200725004
H     1.6755243811   -2.9009367542   -0.0299011884
H     -2.013066033   -0.8747771024    0.0178568148
