15

O    -0.0323023378    1.3323316805     0.009851855
C     1.1085281738    2.0358931217    0.0023754971
C      2.340414931    1.4621979671   -0.0128775566
C     2.4701481513    0.0429315112   -0.0218073625
C     1.3354324469   -0.7165064238   -0.0147038003
C     1.0295433689   -2.1111226903    -0.019244876
C    -0.3438547427   -2.2239780151   -0.0062530198
C    -0.9805118721   -0.9268231607    0.0070910095
C      0.037021385   -0.0213637736    0.0018653332
H     0.9206535089     3.101262059    0.0099705342
H     3.2102900349    2.1060397043   -0.0180016247
H     3.4576766439   -0.4080762335   -0.0340041683
H     1.7501847843   -2.9152646132   -0.0307345235
H       -0.8927673   -3.1578723406   -0.0058702341
H    -2.0410080164    -0.728541513    0.0186794468
