12

O     -0.024484466   -0.0286432851    0.0044046202
C     0.0275726355    1.1730182619    0.0088426227
C    -1.1859107719    2.1228396307    0.0313123325
C    -0.7810175905     3.405062131    0.0317027369
C     0.6899543899    3.3637279538    0.0107571915
C     1.1929781958    2.1071989721   -0.0025404525
N     2.5750774762    2.1607694107   -0.0213450207
C     2.8191563772    3.4327313621   -0.0186809659
O     1.7006116065    4.2490875917    0.0009943638
H    -2.1994293926    1.7484846959     0.044031664
H    -1.3927512975    4.2963137323    0.0448514996
H     3.7697495874     3.940710913   -0.0294270921
