14

N    -0.0518627856    1.3265907535    0.0104304029
C    -0.0268574519    0.0569242429    0.0033771382
O     1.1856731315   -0.6351064445   -0.0071088978
C     1.2281294129   -1.9894874838   -0.0147382889
C     0.1357120851   -2.7658087176   -0.0129295972
C    -1.1524766808   -2.1156069018   -0.0022562583
C    -2.3964354014   -2.9221994584    0.0002259272
O    -2.4127854167   -4.1296551534   -0.0062638995
C    -1.2231757668   -0.7630738192    0.0055148068
H      0.893700362    1.7103975392    0.0072914389
H     2.2500864983    -2.347563414   -0.0223464099
H        0.2040892   -3.8441022701    -0.019191505
H    -3.3330598539   -2.3246464258    0.0086710134
H    -2.1670320728   -0.2302974269    0.0136418291
