12

O    -0.0023858638   -0.0427207745    0.0042309027
C     0.0214082687    1.1605553897    0.0094482206
C    -1.1899350623    2.1049534567     0.031107283
C    -0.7928561186    3.3873428846    0.0313638364
C     0.6947277433    3.3922670007    0.0102163136
C     1.1548628654    2.1201953308   -0.0022157026
O     2.5129749219    2.1516929395    -0.021425018
C     2.7850124448    3.4844738943   -0.0191388686
N     1.7463667473    4.2767758724   -0.0006609712
H    -2.1987691029    1.7181553359    0.0437138366
H    -1.4189625886    4.2691280115    0.0443724797
H     3.8281989947    3.7587374883   -0.0327292823
