14

N     0.0096472472     1.337956459    0.1241852586
C    -0.0338807988    0.0009207324    0.0892154155
C    -1.2516983596   -0.6695760158    0.0132562158
N    -1.5277412474   -1.9740830804   -0.0326292765
C    -0.6580280072   -2.9529007838   -0.0142019735
C     0.7639803212   -2.9066139158    0.0569231154
N     1.6230350048   -1.9298850514    0.1231527486
C     1.3592007059    -0.583197202    0.1430178599
O      2.274615661    0.2285029055    0.2075417582
H     0.9386275674    1.7384720335    0.1792484672
H    -0.8173233758    1.9091249053    0.0975067893
H    -2.1359033879   -0.0306676574   -0.0140971106
H    -1.0828853846   -3.9551050772   -0.0598996639
H     1.2256244439   -3.8985565421     0.055362396
