12

O    -0.0015189645   -0.0843194578    -0.351803091
C    -0.0150354871    1.1164571004   -0.1360189818
C    -1.2743490534      1.84104517    0.0889445011
C    -1.4944697283    3.1764090373    0.0954915259
N    -0.6932066328    4.2566389555   -0.2594352265
N     0.5737501271    4.2739174045   -0.2762199526
C     1.4132912601    3.2160663934    0.0569674476
C     1.2295688571    1.8751944519    0.0557698162
H    -2.1313744218    1.1896944694    0.2439642026
H    -2.5108387307    3.5153090349    0.2799747417
H     2.4245708373    3.5826215351      0.21458746
H      2.107841907    1.2475108353    0.1877965567
