16

C     0.0684461688    1.5186460955   -0.0537143709
C    -0.0350194233    0.0311104324    0.0475465526
C     -1.169225973   -0.7166255914   -0.1712201185
C     -1.116392965   -2.1086832506   -0.0393762008
N    -2.1236138536   -2.9625714787   -0.2175079379
H    -3.0566143094   -2.6948737732    -0.472325297
H    -1.8499526108   -3.9318529213   -0.0663634686
C     0.1401717366   -2.7907669574    0.3317806075
O     0.1467765036   -4.0380074881    0.4397841785
C     1.2055528229   -1.9073681241    0.5218796135
O     1.1007584851   -0.5596393185    0.3808565096
H     0.8096280455    1.8094216105   -0.8061001149
H    -0.8947801918    1.9502093103   -0.3310423993
H     0.3837351179    1.9551662314    0.9002206859
H     -2.088202989   -0.2093146192   -0.4433930582
H     2.2051019256   -2.2093593076    0.7966862085
