11

F     0.0167427454    0.0321873069    0.0031831512
C    -0.0358209056    1.3567886388    0.0107712053
N    -1.1866051796    1.9236731016    0.0288087049
N    -1.1652454691    3.2577543818    0.0355664971
C    -0.0236402084    4.0742297264      0.02514975
N    -0.1802815932    5.3375280721    0.0340459098
N     1.2055573164    3.3931892709    0.0052822121
C      1.192588102    2.1042545084   -0.0014109218
H    -2.0666328811    3.7123528416    0.0498054558
H     0.7329425745    5.7871737417    0.0244431471
H     2.1397582186    1.5661741597   -0.0166923213
