14

O     -0.027954133    1.3502316445    0.0100904997
C     1.1157493154    2.0404020739    0.0021870448
C     2.3505599815    1.4670542532   -0.0133085314
C      2.478636968    0.0471801295   -0.0220812319
C     1.3370251411   -0.6974735142   -0.0144347004
C     0.9672157696   -2.0812117957   -0.0177135688
N    -0.3433311892   -2.2200496717   -0.0057095168
C    -0.9311083409   -0.9539718493    0.0068651133
C     0.0456997093   -0.0089943756    0.0021985619
H     0.9372716462    3.1081020771    0.0096085144
H     3.2193595063    2.1118430573   -0.0186550523
H     3.4643641363   -0.4079550139   -0.0343167954
H     1.6344832688   -2.9334383755    -0.028736635
H    -2.0034250293   -0.8371312694     0.018106038
