16

N     -0.015060913    1.1644439993    0.6570414892
C    -0.0524654524   -0.1315844575    0.2496180365
N     1.1470476869   -0.7679790628    0.1215498064
H     1.0546592344   -1.6660673955   -0.3409760196
H     1.9388828172   -0.2058935611   -0.1520107981
C    -1.2473250627   -0.8011279221   -0.0289272909
C    -2.6441258328   -0.2538150469    0.1703132046
C    -2.8657624459    0.5006422324    1.3977957703
C    -3.0259147388    1.1538103252    2.3969865167
N    -1.0702367183   -2.0436745219   -0.5704473451
O    -2.0837549395    -2.704045711   -0.8448181694
H     0.8151015829    1.4621890268    1.1470979822
H    -0.8775582491    1.5437044542    1.0273755104
H    -2.9493875935    0.3635584593   -0.6873039899
H    -3.2917567178   -1.1410071796     0.136357396
H    -3.2078338376    1.6956681412    3.2920734106
