15

N     0.0704385441    1.3185982957   -0.3362330401
C    -0.0434828958   -0.0172212769   -0.0285033936
C     -1.267654707   -0.6321328424    0.0398554992
C    -1.5192301166   -2.0496813704    0.1657741315
N    -2.6477903671     -2.49813443    0.5943872468
C    -0.4865441171   -2.9430216011   -0.4282620277
N     0.7890959619   -2.8678445302   -0.3583792996
C     1.4690580518   -1.8217342053    0.2226932638
N     1.1853645676   -0.5697175077    0.2840900411
H     0.9090269365    1.7629905415    0.0033524561
H    -0.7640260248    1.8819315587   -0.3133617141
H    -2.1591702467   -0.0123518005   -0.0025022423
H    -2.6860911185   -3.5166437327    0.5024339184
H    -0.8918522858   -3.7919718719   -0.9888985205
H     2.4526630576   -2.1096667167    0.5930269509
