11

O    -0.8530641703    1.1002209026    0.2543504382
C     0.2551731672    0.8104313453    -0.118442405
C     1.4113496759    1.7593959488   -0.0620162604
C     1.2809467916    3.0611889015    0.4323922463
N     2.3171454103     3.893713968    0.4765445473
N     3.4960621905    3.4576831861    0.0350952784
C      3.576793246    2.2091232249   -0.4283666323
N     2.5841855843    1.3176921869   -0.5040122047
H     0.5178394815    -0.182705612   -0.5348178866
H     0.3293283782     3.433134388    0.7958015543
H     4.5573934948      1.89899014   -0.7768016754
