16

C     0.0577653654    1.3770479304   -0.0547831001
N    -0.0877317342   -0.0507257715    0.1189996862
C    -1.2373504125   -0.7344953217    0.0283727823
N    -2.3818967268   -0.0254347486   -0.0989576128
H    -3.2625419832   -0.5093302399   -0.0880114235
H    -2.3979232823    0.9530101739    0.1305498613
C    -1.2002779327   -2.1590032454    0.0318226827
C     -2.409418953   -2.9625643777    0.0855155338
O    -2.4984243667   -4.1681413278    0.0204109918
N      0.106064344   -2.6338478144    0.0217342636
O     0.3047935899   -3.8433256546    0.0372800614
H     1.1215136248    1.6153243237   -0.0835580259
H    -0.3955812255    1.7237259537   -0.9920742589
H    -0.3822567665     1.940989048    0.7787042966
H     0.7188177212   -0.6686677572     0.137328364
H    -3.3501918518   -2.3612661309    0.2248583175
