17

O    -0.2401192187    0.5374070001    0.3510850257
N    -0.0350796136    1.5224004175   -0.3258010381
C     1.3288580516    1.9889430307   -0.3539218706
C     2.5071877421    1.1608424601    0.0243755818
O     2.5029503534    0.0034443034    0.3512741485
C     1.5296899521    3.2413209492   -0.8241433323
C     0.4789300008    4.2030345375   -1.2399667044
C    -0.0264149766    5.0870874034   -0.0424625181
N    -0.7393170439    4.4019553026    1.0139630783
H    -0.1356359389    3.7694446727    1.5279068431
H    -1.5018572882    3.8439565788    0.6429865588
H     3.4611647049    1.7364397262   -0.0553943923
H      2.559960403    3.5991565781   -0.8359557775
H     0.8779388737    4.8736314425      -2.0088727
H    -0.3840949465    3.6704170148    -1.647071347
H     0.8216931784    5.6230651014    0.3975685918
H    -0.6870998535    5.8455391011   -0.4764868377
