14

N    -0.0745258837    1.3341765227    0.0108342701
C    -0.0158005015    0.0546597454    0.0035493544
N     1.1655080675   -0.7072810174   -0.0075674584
C     1.1801683988    -2.068799408   -0.0156936204
C     0.0054656044   -2.7518617388    -0.012815947
N    -1.1939590118   -2.0978550059   -0.0017229192
C     -1.222211591   -0.7980623406    0.0060510469
C     -2.562593259   -0.1169643503    0.0185583045
O    -3.6082063146    -0.718261041     0.019411119
H     0.8487134326    1.7692111572    0.0077410068
H     2.0395469224   -0.2015299818   -0.0097507794
H     2.1532664948   -2.5445554961   -0.0241858948
H     -0.016741721   -3.8337940788   -0.0190560924
H    -2.5104799878    0.9857425933    0.0269834997
