14

N     0.1176082359    1.3264469539    0.3180938821
C    -0.0468001874   -0.0071936368    0.0266191363
C     -1.268718331   -0.6201181612    0.0753956934
C    -1.5127125109   -2.0299765641   -0.2025060252
O     -2.485034062   -2.4399712406   -0.7993143899
N    -0.6245058847   -2.9618575742    0.3929742837
C     0.6466028697   -2.8923882113    0.2970103867
C     1.4410715965   -1.8245349889   -0.3110895859
N     1.1491680623   -0.5771414524   -0.3883840107
H     0.9240951055    1.7614696154   -0.1016501367
H    -0.7066563765    1.9013421807    0.3821770826
H    -2.1596418195   -0.0090859356    0.1906729591
H     1.2298055914   -3.7074193632    0.7371256656
H     2.4336635006   -2.1079913115   -0.6689039112
