13

N    -0.1130563359    1.2892400221   -0.3345128427
C     0.0226622803    0.0565411317   -0.0373175866
N    -1.1169191252   -0.6741981382    0.3279445713
C    -1.0989341934   -1.9839067919    0.6632401238
C     0.0794106561   -2.6713695665    0.6580762452
N     1.2487290653   -2.0581717979    0.3185543492
C     1.2316185848     -0.79668668   -0.0044443769
C     2.4683783327    -0.160980712   -0.3601995134
N     3.4378809265    0.3991511076   -0.6550378304
H     0.7804684333    1.7105096133   -0.5817604716
H    -1.9784345966   -0.1448428874    0.3248169181
H    -2.0489686775   -2.4324865056    0.9262832657
H     0.1254930897   -3.7189927751    0.9213698482
