15

N     0.0075660125    1.3603856485    0.0097325113
C     1.1464259876    2.0850861999    0.0025264616
C     2.3829737492    1.4699985013   -0.0131841501
C     2.4713605758    0.0640974544   -0.0219753399
C     1.3182839239    -0.690316672   -0.0148080765
C     0.9706614205   -2.0673070739   -0.0191848006
N    -0.3487137968    -2.230220656   -0.0069466469
C    -0.9468123915   -0.9894526217    0.0060063416
C      0.019546957   -0.0110104462    0.0018948735
H    -0.8788123961    1.8443561768    0.0212560703
H     1.0240222122    3.1603585883    0.0097959487
H     3.2723690215    2.0858886704   -0.0185362522
H     3.4485554241   -0.4101351771   -0.0343495564
H     1.6476393591   -2.9114667232   -0.0307029015
H    -2.0226562489   -0.8881655296    0.0172862269
