13

O    -0.0670860767   -0.0372268374    0.0056357297
C    -0.0023609293     1.166752898    0.0099627221
C    -1.2013544387    2.1253634675    0.0310400182
C    -0.7678905348     3.397949279    0.0306208123
C     0.7016343999    3.3361888157     0.009940229
C     1.1892035239    2.0652434155     -0.00251019
C     2.6110851014    2.1901446992   -0.0216068152
C     2.8531092066    3.5339464163    -0.018914531
O     1.6737499641    4.2542284947    0.0005975828
H    -2.2211232823    1.7688459726    0.0436819718
H    -1.3606794083    4.3022355159    0.0429090559
H     3.3579145179    1.4123157249   -0.0354340843
H     3.7504861265    4.1288651279   -0.0286570513
