15

N     0.0149666303    1.3409446366    0.0871054586
C     -0.012815955   -0.0033549916    0.0430901572
C    -1.2172566357   -0.6903347209    0.0188458661
N     -1.502368435    -2.001968552   -0.0248211768
C    -0.6632380978   -2.9989017516   -0.0565153689
N     0.6976878221   -3.0500015623   -0.0568040179
C     1.5176658824   -2.0504251826   -0.0227963965
C     1.3372363182   -0.6031589979    0.0253927737
N     2.3242943643    0.2316926206    0.0549822096
H     0.9315059468    1.7688149786    0.1036418138
H    -0.8250990582    1.8910541596    0.1048511888
H    -2.1053512142   -0.0559616055    0.0385840259
H    -1.1211329164   -3.9853872753   -0.0895189994
H     2.5775186491   -2.3277114265   -0.0311551213
H     3.2214613192   -0.2539926894    0.0403355371
