16

C     0.0516457372    1.4286004953    0.0525073942
N    -0.0051053808   -0.0151901464    0.0052289644
C     0.0214457035   -0.8040072523   -1.1308723615
C     0.0469467836   -2.1291096524   -0.8492637693
C     0.0445705071     -2.23429796    0.5954660632
N      0.052121175   -3.2275285928    1.4108244198
O     0.0688142083   -4.4422820534    0.7329565751
C     0.0278323451   -0.8313662072    1.1385264605
N     0.0443004241    -0.373431547    2.3260017994
H     1.0811524673      1.80284527   -0.0110613066
H    -0.5310499739    1.8516272124   -0.7703898671
H    -0.3731514322     1.754910573    1.0030412002
H     0.0122804167   -0.3224971018   -2.0995684876
H      0.051608318   -2.9452298704   -1.5501811743
H     0.0718106136   -5.0841622638    1.4517848206
H     0.0583118571   -1.1528306832     2.984446509
