15

N     0.1124914856    1.3821376907    0.1736390825
C    -0.0067762044    0.0183751391    0.0081632996
N     1.1849294061   -0.6460602925   -0.2010386251
H     1.9328462173   -0.3582920538    0.4182193098
H     1.0500906098   -1.6506318783   -0.2145746387
C    -1.1929876091   -0.6658743802    0.0368603119
N    -1.2341320936   -2.0391560353    0.0792111193
C    -2.4919440297   -2.3888847912    0.0772726844
C     -3.404870875     -1.22810065     0.027914112
O    -4.6179250516   -1.1438805887   -0.0064841543
N    -2.4947226728   -0.1639512228    0.0280310891
H      0.794397973    1.8289408007   -0.4239224921
H     -0.743941529    1.9053319515    0.2602303507
H    -2.8155733502   -3.4208295409    0.1068859785
H    -2.7912648565    0.7863815717   -0.1117598876
