14

C     0.0715830626    1.4398353813    0.0670215644
N    -0.0118459575   -0.0045394035    0.1540411632
C    -1.1421191421   -0.5755877165    0.0683945866
N     -1.154532018   -1.9871869665    0.1609286777
N    -2.2107315058   -2.7765339638      0.09802406
C    -3.3604829401   -2.1844302662   -0.0670512683
C     -3.429867074   -0.7536462751   -0.1699030093
N    -2.3968800106    0.0208031602   -0.1085288321
H     0.7306871978    1.7149251719   -0.7656302367
H    -0.8953197788    1.9356495002   -0.0715017573
H     0.5403549789    1.8309927681    0.9784179287
H    -0.2607988268   -2.4419112311    0.2888774861
H    -4.2385265154   -2.8150180575   -0.1210514559
H    -4.4030480203   -0.2801792214    -0.307837017
