15

N     0.0789486314    1.3576966534    0.1651648918
C    -0.0558435495    0.0109729809     0.017236696
N     1.0467646298   -0.7407723339   -0.1223153444
H     1.9523168739    -0.404258162     0.157845184
H     0.8424253983   -1.7382346352   -0.0961318949
C    -1.2805019948   -0.6801005385    0.0313471249
C    -2.5755653455    -0.165131932    0.0092251344
N    -3.3726447951   -1.2415228639    0.0128909508
C    -2.5571995972   -2.4729714559    0.0289340485
O    -3.0790453836   -3.5725342402    0.0290651425
N    -1.2713311533   -2.0582138477    0.0407819259
H     0.8773813388    1.8015907326   -0.2626815752
H    -0.7645426104    1.9069940342    0.1446371656
H    -2.9509818218    0.8475850269   -0.0225174718
H     -4.380330681   -1.2485234688    0.0023677818
