11

O     0.0038335968    0.0084969051    0.0040512609
C    -0.0338475639    1.2066421624    0.0109013321
C    -1.2722514873    2.1047674907    0.0321936259
C    -0.6836289957    3.4926902576    0.0316100026
C     0.6590696737     3.518175838    0.0139060268
C     1.2089912322    2.1505703571   -0.0005471189
O      2.357397929    1.7836273551   -0.0177187933
H    -1.9105958887    1.9114221491   -0.8384259965
H    -1.8870015896    1.9022306464     0.917585159
H    -1.3132955022    4.3762362273    0.0445638608
H     1.2836862957    4.4020072012    0.0102177206
