15

O    -0.0602029282    1.3260607086    0.0001735062
N     0.0468777721   -0.0732840778     0.004812611
C    -1.1131962602   -0.6208398419    0.0134715993
C    -1.2752632795   -2.1397779393    0.0181223199
N    -2.7143302229   -2.3098868059   -0.2140527602
C    -3.3272842724   -1.0835745014   -0.0811720587
C    -4.7924076583   -0.9946653195   -0.0246786712
O    -5.5096251445   -1.9709229745    0.0042847304
C    -2.4452991051   -0.0504695694    0.0070066961
H     0.8625742624    1.6006027703   -0.0149887033
H    -0.6788821808   -2.6239023031   -0.7604832447
H    -0.9744738789   -2.5618192721    0.9864439197
H    -3.2021886483   -3.1157972642    0.1464361394
H    -5.1960235776    0.0366958315    0.0155034541
H    -2.6805068779    1.0007235488     0.025545062
