15

N     0.0529176855    1.4099745116   -0.0256785094
C     0.0077525534   -0.0033338289    0.0525349548
C    -1.1574913939   -0.7071808332    0.2565686343
O    -1.1634788076   -2.0220791448    0.4044489161
C    -0.0345230072   -2.7514305221    0.3167120386
C     1.2320808005   -2.1923816741    0.0732578823
O     2.3219310511   -2.7983633218   -0.0136395495
C     1.2054997873   -0.7304893597   -0.0279785551
N     2.4107689107     -0.16628905   -0.2160857673
H     3.1631233698   -0.8469777136   -0.1362108638
H     2.5649659191    0.7980295238    0.0293031586
H    -0.8608404409    1.8349496914    0.0754074024
H     0.4570550156    1.7234329531   -0.9030867159
H    -2.1431822122   -0.2679635749     0.334235949
H     -0.211926951   -3.8056779868    0.4702888549
