13

N    -0.0052349308    1.3263668066     0.009529431
C    -0.0321416714    0.0640535101    0.0033793922
O     1.2080475803   -0.6529368096   -0.0071389286
C     1.2110363698   -1.9866151846   -0.0142495673
C     0.0759257009   -2.7105758783   -0.0120266769
C    -1.1501180483   -1.9565948905   -0.0015328088
C    -2.4583171077   -2.7203547616    0.0013295373
O    -3.5424815807   -2.2087734091    0.0095574479
N    -1.2023520115   -0.6634701141     0.005588444
H     0.9551115349    1.6675774686    0.0061458812
H     2.2164167165   -2.3945296017   -0.0217854024
H     0.0934973899   -3.7913828789   -0.0178563873
H     -2.328519962    -3.825699897   -0.0054210323
