14

N     0.0869376044    1.3609715198    0.1866227988
C    -0.0296022106    0.0006866001    0.0689915368
C    -1.1945496143   -0.7029790325    0.0346054973
O    -2.3860272762   -0.0239593644    0.0551478657
N    -1.2066567419   -2.0528117901    -0.017111279
C    -0.0819599004   -2.7009627765   -0.0352642835
C     1.2140317566    -2.049527846   -0.0064165671
N     2.3288042418   -2.6581267789    -0.028581704
O     1.1544602229   -0.6494846071     0.043609218
H     0.9307092773     1.756389433    -0.203144762
H    -0.7571895659    1.8663318419   -0.0400427469
H    -3.0762253016   -0.6940942981   -0.0172365345
H    -0.0856134709   -3.7841239922    -0.079292945
H     3.1106018988   -2.0044037688    0.0009019952
