14

N     0.0173844853     1.386824026   -0.1271539593
C    -0.0377905402     0.026825816   -0.0249831816
C    -1.2714672642   -0.6131338072    0.0215489428
N    -1.5736898819   -1.9210261679     0.048445176
C    -0.7782835703   -2.9459838481    0.0059373156
C      0.681558917   -3.0175323484   -0.0713953891
O     1.2672453785   -4.0896668584    -0.173536281
C      1.508018848   -1.7798241233    0.0198418847
N     1.2191977673   -0.5278443085    0.0261832784
H     0.9079955788    1.8193450772    0.0519243942
H    -0.8126357653    1.9397348809   -0.0000927548
H    -2.1418470543    0.0428189369    0.0384983713
H    -1.2484525481   -3.9299624891    0.0286631531
H     2.5713103794   -2.0245328462    0.0822740895
