10

O    -0.0825059666    1.5401532243    0.0103450903
C     1.2706572377    1.7870768262   -0.0011437945
C     2.0164459666    0.6712668314    -0.013013985
C     1.0554911577   -0.4117275134   -0.0097934009
C    -0.2969741411    0.1631739956    0.0056281398
O    -1.3858550758   -0.3335979537    0.0133793775
N      1.410937039   -2.8188565533   -0.0252369423
N     1.2630473967   -1.6962256776   -0.0179396329
H     1.5477065527    2.8288225753     0.001212803
H     3.0905616031    0.5925640052   -0.0231343552
