16

C     0.1077914905    1.4766913325    0.2114217371
C     1.4231511287     1.773693578   -0.0640217596
C     1.4394126897     1.225863853   -1.5746821361
C     0.5018671819   -0.0919136033   -1.4157328963
C     0.0062934445   -0.0203503698    0.1066150897
C     1.4090882991   -0.6182599381    0.4178152278
C     2.3551057079    0.6165615842    0.3522948395
C     2.5947426168    0.2746757312   -1.1355072959
N     1.6917107487   -0.9552334466   -1.0416259717
H    -0.6932934134    2.0503878017   -0.2608526603
H     1.4032615807    1.8225746855   -2.4849262942
H    -0.1436241959   -0.4213998412   -2.2361732095
H    -0.9007501687   -0.5579586586    0.3780537845
H     1.5251972536   -1.4086273595    1.1580386399
H     3.1503132128    0.7780992594     1.077347209
H      3.563728933    0.2236502517   -1.6333918441
