15

C     0.1983232637    1.4267627209    0.1472749125
N     0.1810008774   -0.0243658785    0.1101025323
C     0.4016896367    -0.600303223   -0.9992561457
O     0.6554873757    0.0997446689   -2.1621726994
C     0.8864021781   -0.5774652295   -3.3283249711
C     0.8705913135   -1.9214012736   -3.3632090936
O     1.0965654649   -2.6115072383   -4.5064843684
N     0.6227383228   -2.6801038559   -2.2343377162
C     0.4042624939   -2.0526827866   -1.1319585896
H     1.1704782537    1.8323747517    -0.166130081
H    -0.5555984726    1.8620301104   -0.5235335622
H     -0.006835736    1.7627853386    1.1657457932
H     1.0725356609    0.0734334391    -4.169633526
H     1.0314043713   -3.5458560996   -4.2711005011
H     0.2057342557   -2.6154336647   -0.2239881537
