16

C    -0.0305912778    1.4645429109    0.0906337689
N    -0.0053398612    0.0497137623   -0.2569108835
C    -1.1622865881   -0.7128745712   -0.1033472894
C    -1.1443626678   -2.0741878342    0.0450725218
N    -2.3334218686   -2.7528697138    0.1058067997
C    -3.5908907345   -2.1579500622    0.0408007655
O    -4.6264083887   -2.8036568976    0.1010009783
C    -3.4720885062   -0.7062738365   -0.0965482357
N    -2.3559105171   -0.0452937219   -0.1624834941
H     0.9531318283    1.8875923269   -0.1266233556
H    -0.7736578706    1.9795454106   -0.5192311753
H    -0.2727177007    1.6550586657    1.1471649962
H     0.8264668207   -0.4260339002    0.0596264233
H    -0.2394348739   -2.6651431217    0.1101402914
H    -2.3377095733   -3.7581118929    0.2117041581
H    -4.4066318507   -0.1518033042   -0.1418403695
