17

C    -0.2775248753    1.3478484037    0.0682455872
C     1.3071716606    1.1296863773    0.1764184127
C     2.0590206705    0.1532990439    1.0854363633
C     2.3548274774   -1.0308422004    0.4920360141
C     1.5784320278   -1.1394234581   -0.7528292495
C     0.4953161603   -1.9106067955    -1.055928917
C    -0.6957346316   -1.0081920611   -1.1563641513
C    -0.2816961327     0.275358598   -1.0536164119
C     1.2162833906    0.2778279979   -1.1043509813
H    -0.8855622233    1.0883724377    0.9367638607
H    -0.5125863254     2.373912248   -0.2334720165
H     1.8426783114    2.0815332886    0.1037384582
H     2.3983983929    0.4180502021    2.0826742142
H     2.9003608429   -1.8340744167    0.9747102662
H     0.3847772773    -2.972034766   -0.8636255886
H    -1.6945096665   -1.3977611552   -0.9841524281
H     1.7140788531    0.6766871957   -1.9945346024
