15

N     0.1663280589    1.4119520808   -0.0484317753
C    -0.0433633932    0.0186486351    -0.079222613
N     1.0465615805   -0.7422334101   -0.0047905576
H     1.9088542879   -0.2094143893    0.0664780035
C     1.1835169858   -2.0758041541   -0.0089833814
C     2.3406526692   -2.8563173793    0.0703642592
C     1.9402400901   -4.1720621256     0.025562334
C     0.5016718322   -4.2184407198   -0.0842045605
O    -0.3165008449   -5.0945947917   -0.1559251493
O     0.0711704554   -2.8366095941   -0.1017887232
H    -0.1766398882    1.8719816863   -0.8884033698
H    -0.3019605459    1.8548029271    0.7385640249
H    -0.9998176103   -0.4826486105    -0.157128901
H     3.3479738563    -2.472078559     0.151073829
H     2.5523012662   -5.0581706456    0.0623311806
