16

C     0.0836216594    1.3904200726   -0.2466909856
C     1.5909686773    1.2958299217     0.293543677
C     2.3177886774    0.3620311241   -0.3752990285
C     1.9789352287   -0.9992132081    0.3381537431
C     0.5723941634   -1.0204067884   -0.3675508381
C    -0.1665091008   -0.0961811097    0.3013484912
C     0.3158352182   -0.0795877899     1.731024402
C     1.4721678834    0.8362908475    1.7258898531
N     1.6989891954   -0.6378286434    1.7544908863
H    -0.5237171409    2.1599088728    0.2339057986
H     0.0129039495    1.4736221915   -1.3315285078
H     2.3881600575    0.3577240497   -1.4613774939
H     2.6530014704   -1.8507786181    0.2446856589
H     0.5545476477   -1.0945831141    -1.453237963
H    -0.3329346869   -0.2605048119    2.5815876162
H     1.8014688001    1.4300639037    2.5721083805
