16

C     0.0075213128     1.415726208    0.0088231938
O     0.0150696907   -0.0068284724    0.0040886252
C    -1.1917388538   -0.6292391319    0.0117154523
C    -1.2369189254   -1.9908657105    0.0084794405
N     -2.454719108   -2.6105615867    0.0160400083
C    -3.6748147258   -1.9402780372    0.0270482909
N    -4.7662936275    -2.622094636    0.0334641487
C    -3.4834881568   -0.4911048282    0.0294919003
N    -2.3343284376    0.1119937343    0.0223770712
H     1.0579841049    1.7111591172    0.0014744547
H    -0.4995935532    1.8190874208   -0.8736956195
H    -0.4855056744    1.8132355028    0.9019308257
H    -0.3543988362   -2.6149885859    0.0001681746
H    -2.5132059604   -3.6187468475    0.0138156435
H    -5.5699794961   -1.9971655347    0.0412072855
H    -4.3807733131    0.1257506679    0.0379787542
