15

N    -0.1805406906    1.4242349529   -0.0108675046
C     0.0495047193    0.0416229792    0.0372221139
N    -1.0209269792   -0.7454454085    0.1001912635
H    -1.9045501495   -0.2501680795    0.1747475728
C    -1.1035482774   -2.0851342296    0.0629959263
C    -2.1858877347   -2.9591823159     0.112970652
N    -1.7728257655   -4.2139610664    0.0327337682
C    -0.3907063555   -4.1580119412   -0.0695033881
N     0.4966750867   -5.0591923417   -0.1681108109
O     0.0381814587   -2.8071658893   -0.0536193814
H     0.5397171527    1.9458505478    0.4749892744
H    -0.2430142722    1.7955183674   -0.9573033359
H     1.0214489236   -0.4337636041    0.0205426772
H    -3.2319385826   -2.6911073251    0.2004116182
H     0.0305025662   -5.9646640158   -0.1605631654
