16

C    -0.2262416836   -0.9816919047    0.3580261983
C    -0.1606862081    0.1812818624    0.0367184786
C    -0.0322475827    1.5155176694   -0.3822991998
C    -1.0575800394    2.4020383158   -0.5331872695
C    -1.8094638106    2.7032843289    0.7713192424
C    -0.7173301145    3.8484161738    0.8855331751
C    -0.4773167754    3.8350088064   -0.5723301998
N     0.6778424614    3.6822282807    0.2829194309
C     1.2213920097    2.3420141752   -0.0439809984
H     -0.297848968    -2.002582277    0.6413707487
H    -2.7870600173    3.1889406404    0.6828629241
H    -1.8468985746    1.8975756703     1.507558675
H    -0.8032460551    4.7065885153    1.5439685797
H    -0.5755528365     4.598082454    -1.335112217
H     1.7256879375    1.8764742925     0.808598658
H     1.9585875971    2.4755193767   -0.8449925662
