15

C    -0.0043074421    1.4493549033    0.1124052043
N    -0.0420252802    0.0583164263   -0.3294216986
C    -1.1929933776   -0.6937828387   -0.1143968978
C    -1.1844036984    -2.020510917    0.1748335882
O    -2.3276315224   -2.7464130455    0.2485994246
C    -3.5642494024    -2.155049039    0.0788567529
O    -4.5640316613   -2.8198063021     0.146236075
C    -3.4884722306   -0.7108222646   -0.1681147323
N    -2.3958747115   -0.0338267378   -0.2650202152
H     0.9200970443     1.903377989   -0.2520106544
H    -0.8490325244    1.9859274861    -0.319859032
H    -0.0467963487    1.5642836003     1.206262876
H     0.8018524139   -0.4517505912    -0.109777842
H    -0.3013326186   -2.6222442464    0.3486537894
H      -4.44157044   -0.1984340127   -0.2747944282
