17

C     0.0897086859    1.3851029808   -0.2323943419
C      1.601891968    1.2761815668    0.2922286305
C     2.3150239109    0.3535597469   -0.4109497207
C     2.0006720232   -1.0399108605    0.2565866214
C     0.5681204336    -1.021209094   -0.4019209168
C    -0.1565235918   -0.1076498974    0.3013197796
C     0.3084543167    -0.100941843    1.7357539954
C      1.714220094   -0.6662950537    1.7215175336
C     1.4952293116    0.8330313523    1.7296189316
H    -0.5107243099    2.1513224332    0.2632885744
H     0.0093893375    1.4800486401   -1.3156013464
H     2.3495079998    0.3820107866   -1.4993237186
H     2.6645196261     -1.88468605    0.0690895092
H     0.5254127507    -1.053502477   -1.4898959594
H    -0.3722212698   -0.1653883265    2.5766711421
H      2.150575075   -1.2153448736    2.5455326357
H     1.7232269686    1.4837010489    2.5658367404
