16

C     0.2225516015     1.423436293    0.1685646136
N     0.1881575623   -0.0269535148    0.1210414179
C     0.3894067346   -0.5945292284   -0.9973687556
O     0.6409696487    0.1094322309   -2.1527354732
C     0.8423777549   -0.5678716473   -3.3288124673
C     0.7952930035    -1.913410581   -3.3924187029
N     0.9081910023   -2.6658536442   -4.5632736123
N     0.5613625055   -2.6741906059   -2.2484535869
C     0.3767167939   -2.0461528124   -1.1429591554
H     1.2014127022    1.8197103608   -0.1366121079
H    -0.5224044814    1.8744710274   -0.5020091701
H     0.0177528311    1.7550657789    1.1887949262
H     1.0258919026    0.1023565351   -4.1570984488
H     1.4456605672   -2.2300487874   -5.2992973703
H     1.2350362515   -3.6025106404   -4.3668630726
H     0.1985125295   -2.6108924445   -0.2312562145
