18

C    -0.0582772827    1.5471186304   -0.0493337165
C       1.47346527     1.425144894    0.1002377475
C     1.2780402501    0.0825135164    0.8891971774
C    -0.0112068488     0.019492018   -0.0258677546
N     0.6622985277   -0.4242975597   -1.2707258785
C     1.3297074426   -1.7179259978   -0.7500923512
C     2.2319308421   -0.9252149077    0.2148219653
C     3.0120242302   -0.2536283965    -0.704686028
C     1.9371441838    0.6884603522   -1.1511327218
H    -0.5353674643    1.9552277219    0.8452829609
H    -0.4480583924    2.0358891438   -0.9473005046
H     2.1012467552    2.2503941588    0.4346456111
H     1.1842307083    0.0961362274     1.972872707
H    -0.8770614186   -0.5921471543    0.2282994583
H     0.5538164325   -2.3535942164    -0.315648816
H     1.8568709232   -2.2537332559   -1.5376476792
H     3.6055910278   -0.7997484361   -1.4343489239
H     2.0420627434    1.2287833316   -2.0899490734
