17

N     0.2435254908    0.2483138711   -1.5162705017
C     0.0388246007   -0.4481194121   -0.3307289808
C    -1.0277208703   -0.4753835421    0.4918587618
O    -0.9019638959   -1.3828784343    1.5513269321
C     0.3313761989   -1.9766671302    1.4416108816
O     0.7335467564   -2.7873939867    2.2260475759
C     0.9854522191   -1.4181922935    0.2107447683
C     2.1790478944   -1.8276719163   -0.2278031709
N      3.110230873    1.5077170189   -1.5394632033
H     3.7145609571    1.3619970492   -2.3434816153
H     3.0726329695    2.5121199019   -1.3881298273
H     3.5981735232    1.1168858521   -0.7379562577
H     1.1795542375    0.6545340146   -1.5935405285
H     -0.461189181    0.9537200574   -1.6877794812
H    -1.9623544985    0.0624323464    0.4705367528
H     2.6172562454   -1.4379478557   -1.1392435969
H     2.7255698996   -2.5840853308    0.3247726312
