13

O    -0.0218226955   -0.0122312592   -0.0007583276
C     0.0081626545    1.1954817224    0.0088580271
C     1.2677612418    1.9683154717    0.0017099998
C     1.3283107959    3.3154092775    0.0121180733
C     2.7334272882    3.7769976501    0.0008012895
O     3.1624136293    4.9023077007    0.0054351454
C     3.5932436671    2.4725929258   -0.0191855193
O     4.7907437531    2.4402003763   -0.0324157649
C     2.6190168835    1.2956968988   -0.0183050388
H    -0.9188872273    1.8061392277    0.0238138408
H     0.4803877922    3.9900184906    0.0267550285
H     2.7764273458    0.6476349626    0.8507369138
H     2.7575940115    0.6618504548   -0.9009277577
