13

N      0.021330953    1.3414932357   -0.1534854323
C    -0.0647307912   -0.0000208095    0.0098225079
N     1.1042012722   -0.6647395433    0.1560334287
H     0.9865269579   -1.6729386359    0.1225695314
H     1.9360613621   -0.2762871523   -0.2601732689
C      -1.28568613   -0.7089064786    0.0196814613
C    -2.5713045914   -0.0311199109    0.1257547662
O    -3.6713853731   -0.5221204714    0.0175702023
N    -1.0811662577   -2.0908853437   -0.0337426222
O     -2.053623437   -2.8316019225   -0.0022185697
H     0.8467441172    1.8190601972    0.1705099048
H    -0.8231726321    1.8857519021   -0.1919200166
H      -2.48591826     1.064199333    0.3618846271
