13

O    -0.1288954213   -0.0146795899    0.0029801533
C    -0.0306024664    1.1847012066    0.0081189349
C     1.2519054976    1.9335645997    0.0005107236
C     1.3358027495    3.2775696481    0.0108669665
C     2.7564837451    3.7395924523    0.0008921397
O      3.116729462    4.8905157979    0.0060154509
C     3.6306587815    2.4909119295    -0.019106299
C     2.6360445593    1.3264792699   -0.0196616024
O     2.9050343356    0.1558787464   -0.0323848146
H    -0.9274028604    1.8438156812    0.0197698629
H     0.5070470838    3.9775470779    0.0252808663
H     4.2716016159    2.4647410994   -0.9058107573
H     4.2889068078    2.4490551011    0.8542323451
