15

O    -0.0039672129   -0.0214664207   -0.0537484803
C      -0.03097016    1.1751925626   -0.0235132381
C    -1.2111286564    2.1454258722    0.0675911826
C    -1.2790452385    2.7434695183    1.4938191345
C    -0.0678945512    3.7228585486    1.4823584199
C     0.4863424982    3.5180860869    0.0515251519
O    -0.6890513602    3.2264523155    -0.731491036
C     1.1871281895    2.1602080985   -0.0350553016
O     2.3512376086    1.8830634013   -0.0760092923
H    -2.1414223356    1.7708226946   -0.3551609841
H    -2.2228020777    3.2746381515    1.6302531825
H    -1.2058383333     1.975209668    2.2674320984
H    -0.3882819202    4.7581076349    1.6129019005
H     0.6768573365    3.4976293916    2.2496109574
H     1.0423959732    4.3454238362   -0.3852925553
