15

O     0.0019579189   -0.0325704544    0.1803533992
C    -0.0441336177    1.1646771509    0.0688844702
C    -1.3272487795    1.9756509112     0.037691544
C    -1.2913284114    3.0795065618   -1.0325747405
C    -0.1165134133    4.0478639548   -0.8149745594
C     1.2239388441    3.3350227253   -0.8241418323
O     2.2107692588    3.7478769364   -1.3752025567
C      1.281172675    1.9710680526   -0.0735729892
O     2.3136838666    1.5517971608    0.3736004985
H    -2.1652509365    1.2877796027   -0.0984169713
H    -1.4428608335    2.4400783527    1.0288314884
H    -1.2210389885    2.6282493526   -2.0294470967
H    -2.2310898438    3.6382412457   -1.0091030701
H    -0.0870208203    4.8447249024   -1.5620243524
H     -0.223659379    4.5268001844    0.1701937283
