12

O    -0.2051923146   -0.0124923694    0.0018292764
C    -0.0576019742    1.1856088936    0.0098198809
C     1.2240260426    1.8864521274    0.0014315784
C     1.3460309618    3.2446508498    0.0108648947
N     2.6452338311      3.68512127    0.0002400022
C     3.5350194693    2.5989907582   -0.0179844304
O     4.7295998422    2.6588461003   -0.0304575315
C     2.5929118239    1.3331173586   -0.0178117277
O     3.0053983952    0.2060898137   -0.0312468249
H    -0.9345331843    1.8766465993    0.0245226102
H     0.5375435331    3.9664500566    0.0253634754
H     2.9385666137    4.6490402118    0.0048269563
