13

O     0.0204722964    -0.029425606   -0.0133095745
C    -0.0345560221    1.1737802515    0.0093357131
C    -1.2220388438    2.0544835149     0.044410892
C    -0.8627843915    3.3514815779    0.0245130036
C     0.6054313843    3.5334939705   -0.0595698692
C     1.3027241919    4.6554449436   -0.7175228973
O     1.2325108428    4.5736921934    0.6978614453
C     1.1908624963    2.1363134755   -0.0100040409
O     2.3489703915    1.8289833522    0.0053889176
H    -2.2326663421    1.6699492545    0.0946295879
H    -1.5382751699    4.1983835448    0.0746468864
H     2.2831694481    4.4622819337   -1.1495063654
H     0.7152472682    5.4485338634   -1.1782010587
