15

N    -0.0965114231    1.2360266688    -0.435772367
C    -0.0467631586    0.0221757823   -0.0463784924
N    -1.1851991606    -0.738469482    0.1050723041
C    -1.2328275766   -1.9213507501    0.9492523819
C    -0.0823803072   -2.8692848892    0.5892310978
C     1.2555712421   -2.1684292484    0.7041459154
O     2.2588712655   -2.6751331368    1.1312817367
C     1.2784552189   -0.6857219547    0.2273591155
O     2.3246742716   -0.1083624225    0.0838065079
H     0.8587834403    1.5830466657   -0.5394366133
H    -2.0361839288   -0.2001899529    0.0172204642
H    -1.1878248799   -1.6729712539      2.02153722
H    -2.1888076463   -2.4218793563    0.7764327858
H    -0.0731509251   -3.7635569735     1.216295599
H    -0.2027481622   -3.1828861764   -0.4568584956
