16

O    -0.0103451036   -0.1056268534    0.1364254934
C    -0.0155995636    1.1119945555    0.0851658033
C     1.1830061283     1.910186212   -0.0082244065
C     1.2894701622    3.2711260562    -0.095707178
N     2.5818613087    3.6859764843   -0.2287954346
C     3.4917850808     2.570585233    0.0696501489
C      2.580070732    1.3242226572   -0.0934518538
C     0.2192793483    4.2874969943   -0.0499974026
O     0.4641691042    5.4737749937   -0.0555640527
H    -0.9745368361    1.6728211102    0.1153538406
H     2.8061454685    4.6439874738    -0.005909748
H     4.3457851778    2.5685723877   -0.6119016824
H     3.8757735372    2.6511132332    1.0960664083
H     2.7612614544    0.5593386561    0.6645946213
H     2.7278430064    0.8429053025   -1.0679985674
H    -0.8157342856    3.9049559338      0.00291677
