12

O    -0.0204767863    0.0187254967    0.0028062295
C    -0.0408715255    1.2155678938     0.011682702
C    -1.2698032885    2.1256419791    0.0324992027
C    -0.6596841282    3.5145113691     0.032714686
C      0.690020833    3.5197107033    0.0146152364
C     1.2138158757    2.1396138751    0.0000358961
O     2.3578272675     1.765080746   -0.0187389369
C    -1.4766992503    4.6773832436    0.0497317454
N    -2.1692819724    5.6055510718    0.0636078754
H    -1.9076455257    1.9503373243   -0.8408761986
H    -1.8851967511    1.9401844134    0.9197734686
H     1.3188833018    4.3996939041    0.0108706735
