12

N     0.0278624256     1.417574333    0.1573098456
C    -0.0308547985    0.0290377643    0.0440282065
C    -1.1757164988   -0.6947966765     -4.0965*^-6
O     -1.161413995    -2.051496403   -0.0346229737
C     0.0254111567   -2.7572229323   -0.0290592275
O     0.0115275359   -3.9592113584   -0.0554737706
C     1.2146837748   -1.8981078883    0.0036666174
N     1.1930355401   -0.6094841958     0.038195874
H     0.9077918075    1.7825994117   -0.1809913752
H    -0.7601378284    1.9138979893   -0.2334153254
H    -2.1798233974   -0.2914820931   -0.0067119058
H     2.1721983076   -2.4128000708   -0.0052416989
