15

O    -0.5871792994    1.2517471112   -0.9649917941
C     0.0874447074    1.0408540965    0.0044917832
C     1.2565077689    1.9417330688     0.428633905
O     2.1897341144    1.4508973355    1.0173096294
C     1.1843349195    3.4427884851    0.1017395405
O     0.0980234823    3.9808043464    0.1370301227
C     2.4646251605    4.1304070108   -0.1547694982
C     2.4411562911     5.254679718   -1.1905731653
C     2.5626303778    5.5986546536    0.2485582282
H     0.0065593441    0.1230619209    0.6252546944
H      3.354233554    3.5190919495    -0.080087961
H     3.3108544448    5.3390634839    -1.831410263
H     1.4847860347    5.4270835443   -1.6713994705
H     1.6878471219    6.0032918761    0.7442818721
H     3.5195102379    5.9296497596    0.6344411967
