12

O      0.054708724    -0.035402241   -0.0021313421
C     0.0117348642    1.1721464755    0.0086999039
C     1.2343379551    1.9997163515    0.0019782294
C     1.3197613192    3.3529813241    0.0128352214
C     2.7499100065    3.6947654034   -0.0003313877
O     3.3035047151    4.7635303328    0.0028696189
C     3.4979573782    2.3041088103   -0.0208607713
O     4.6793184694    2.0970220273   -0.0356420809
N     2.4719126989    1.3703520491   -0.0175542823
H     -0.938571396    1.7384784421    0.0243768653
H     0.4962261538    4.0499089094    0.0282377841
H     2.5751247815    0.3673731556   -0.0269822888
