16

O     0.0031755859    0.7889496518    1.5354438901
C     -0.055612569    1.3928734826     0.483220794
C    -1.4101464214    1.8973242745   -0.0286407099
N    -1.5795011456    2.1339544489   -1.4446973782
C    -0.9194990422    3.2963113575   -1.9953545042
C     0.6045307703    3.2751187794   -2.1630238436
O     1.1300845623    4.0019341435   -2.9820998152
C     1.4741174147    2.3773342985   -1.3505525813
C     1.2066284253    1.6146548108   -0.2782688417
H     -2.149764419    1.1707724336    0.3234190813
H    -1.6256445279    2.8321804109    0.5078248541
H    -1.3957040145    1.3012783831   -1.9911485521
H    -1.3240051643    3.5254232003   -2.9866888101
H    -1.1587240878    4.1633313796   -1.3635023047
H     2.5018167701    2.4156619878   -1.7046214737
H      2.031439533    1.0745039374    0.1809960253
