13

N    -0.0749954585    1.2982772477    0.0119692274
C     0.0119558955    0.0358033284    0.0038696531
N     1.1322397135    -0.797100578   -0.0080025025
C     0.7504780776   -2.1229369366   -0.0134643132
C    -0.6013133247   -2.2881862767   -0.0061290819
C    -1.3165482252   -3.5006641298   -0.0088172838
C    -1.9561730921   -4.5211796404   -0.0108756165
C    -1.1972817858   -0.9294371545     0.005372339
O    -2.3521210306   -0.5922625135    0.0146193916
H     0.8430057883    1.7503780804    0.0090797705
H     2.0860186336   -0.4793686115   -0.0118672803
H     1.5067088742   -2.8957396174   -0.0226215734
H    -2.5221852059    -5.419306138     -0.01270706
