15

O    -0.8776772637    1.3497905259    -0.054956988
C     0.2331274532    0.9927393852    0.2389327956
C     1.4449596279    1.9253683865    0.3405910215
O     2.5071222231    1.4179772997    0.6478413262
C     1.2639455687    3.3615669838    0.0656421967
C     2.2665226425    4.2468212728    0.1274830149
C     1.7639798109    5.6130106774   -0.2036651817
O     0.3766549036    5.4545770895    -0.459592648
C     -0.009332512     4.084415055   -0.3193383754
H     0.4977306118   -0.0600843358    0.4689532731
H     3.2929782041    4.0127650528    0.3790985911
H     1.9250332625    6.3221395542    0.6250321941
H     2.2748119038    6.0348936102    -1.085180872
H    -0.4343983733    3.7169321834   -1.2620499933
H     -0.793797453    3.9941397394    0.4425749352
