16

O    -0.0645441034   -0.0178885085    0.1898740109
C    -0.0140122306    1.1869970754    0.1040771997
C     1.2527308527    1.9499043395    0.0151445576
C     1.2170006951    3.2928471668   -0.0593566706
C     2.4568421762    4.1069885327   -0.0560387355
O     2.4294838564    5.3180162526   -0.1268401107
C     3.7532877119    3.3079597942     0.090024044
N     3.6982659774    1.9623098549   -0.4770620066
C     2.5610030245    1.1913767898    0.0154443286
H    -0.9350145331    1.8096396917    0.0821806349
H     0.2770980343     3.839958971   -0.0850448441
H     4.5698033026    3.8779591902   -0.3599572229
H     3.9734520936     3.229430007    1.1654314119
H     3.6397266434    2.0298543997   -1.4884187079
H     2.7712592642     0.854770048    1.0420475084
H     2.4511062047     0.277139855   -0.5741630873
