16

O    -0.9184489023    1.3274949843   -0.0839351858
C     0.2265183943    0.9728040019   -0.2121436068
C     1.4487349409    1.8917634246   -0.2630427187
O     2.5314712761    1.3376679997   -0.4393225482
C     1.2580812873     3.311144112   -0.1023715237
C     2.2942697719    4.1935192476   -0.1722085891
N     1.9060250544    5.4846383167   -0.0463711229
C     0.4975300661    5.5461447401    0.3807065152
C    -0.0268562834    4.1094466547    0.0952124747
H     0.5205186754   -0.0937894117   -0.3204568431
H     3.3332426601    3.9416201589   -0.3409743452
H     2.5582984475    6.2137529521    0.1910118045
H     0.4387414627    5.7909159395    1.4495252133
H    -0.0423673826    6.3185302476   -0.1730295278
H    -0.6498430862    4.0895638669   -0.8055951778
H    -0.6510544222    3.7353943652    0.9075512013
