14

O    -0.4802113586    1.1330241888   -0.9971607222
C     0.0662822791    1.0406165334    0.0668957404
C     1.2094586843    1.9666544299    0.5052539892
O     2.0066487878    1.5802132258    1.3255951488
C     1.2940859082    3.3661764981   -0.1169322942
O     0.2703879802    3.9899844597   -0.3008888781
C     2.6485403515    3.9054537267   -0.3900593762
C     2.8495014964    4.4721576556   -1.7710824129
N     2.7604831231    5.3521699423   -0.6200201669
H    -0.1295239836    0.2267802694    0.7963799279
H      3.475585557     3.427017219    0.1213977524
H     3.8339470185    4.3804513823    -2.219969315
H      2.008127694    4.4132597773   -2.4561770082
H     1.8173815021    5.7399983816   -0.5691216949
