14

O     0.0172760861   -0.0358512957    0.0154921155
C    -0.0397876865    1.1680756482    0.0159376133
C    -1.2252958578    2.0486111943    0.0213553332
C    -0.8545286559    3.3429632447   -0.0045236186
C     0.6127830231    3.5282319659   -0.0271458003
C     1.2962268578    4.6722177733   -0.7036745359
N     1.3020998254    4.5838472185     0.751152264
C     1.1891388419    2.1318195641   -0.0098102665
O     2.3438160141    1.8119290423   -0.0371985369
H    -2.2392190743    1.6714504751    0.0434030922
H    -1.5365195669    4.1885183342    0.0007268979
H     2.2556573102    4.4739593808   -1.1731104102
H     0.6727224625    5.4147632706   -1.1958670177
H     0.6078908002    5.2137116637      1.15107427
