13

N    -0.0704874558    1.2540244029   -0.4129918492
C     0.0080597165    0.0565533201    0.0066121905
N     1.1895132435   -0.6229460138     0.307813018
C     1.2451775854   -1.9176154204    0.7598292737
C     0.1656528641   -2.7007308582    0.9713562613
C    -1.1792926297   -2.2115192342    0.7269226226
O    -2.1960804973   -2.8520441292    0.8922823345
C    -1.2870497902   -0.7461979965    0.2131813315
O     -2.353767162   -0.2500252892   -0.0177308417
H     0.8499062881     1.690317678    -0.513229199
H     2.0554873705   -0.1208550471    0.1818383064
H     2.2517456125   -2.2786909875    0.9410133149
H     0.2874377543   -3.7144368249    1.3296388165
