13

O    -0.4593284763    1.0122432603   -0.9665592507
C     0.0302165466    1.0167887835    0.1287725121
C     1.1671550176    1.9669431043    0.5294731496
O     1.9465112674    1.6330369751    1.3893811018
C     1.2691697532    3.3293720625   -0.1766004247
O     0.2591133113    3.9169687117   -0.4745641483
C     2.6537973548    3.8617704765   -0.3882616009
C     2.9625278705    4.4831829546   -1.6984208135
O     2.7576513753    5.2727576614   -0.5438905995
H    -0.2142991268    0.2779341085    0.9205560732
H     3.4472761134    3.3837694131    0.1796944788
H     3.9844874092    4.4307305211   -2.0698725051
H     2.1727345237    4.5355603474   -2.4454451928
