13

O    -0.0044900839     1.376924067     0.008173867
C    -0.0203115675    0.0181615201    0.0012068539
C    -1.1863829892   -0.6779752194    0.0042462257
N    -1.1333177973   -2.0473013917   -0.0031936699
C     0.0455760904   -2.7846599231   -0.0137443505
N    -0.0128981083   -4.0699289844   -0.0200818813
C     1.2217093935   -1.9133073754     -0.01592896
N     1.1878441365   -0.6174798424   -0.0089958489
H     0.9269593525    1.6305806422    0.0042609602
H    -2.1617523985   -0.2127999634    0.0122378554
H    -1.9850699276   -2.5892599908   -0.0011321157
H     0.9254152356   -4.4646756319   -0.0274923514
H     2.1968264439   -2.3970110967   -0.0240049746
