15

O     0.0069733988    0.0460630477    0.2766781972
C    -0.0292418939    1.2278451029    0.0768672244
C    -1.2356546192    2.0981909288   -0.2390664953
O    -0.8079295403    3.4560830939   -0.1475234475
C     0.5985839199    3.5244772637   -0.2277674962
C     1.2502674207     4.428229674   -1.2676369843
C     1.2791856271    4.7982137008    0.1860526673
C     1.1839963942    2.1954507085    0.0500244784
O     2.3418517648    1.8923783366    0.1869339122
H    -1.6001831941    1.8628816963   -1.2511689214
H    -2.0530089385    1.9290903629     0.467923269
H     2.1604745297    4.0647560069   -1.7317964059
H     0.5602759103    4.9606707221   -1.9121157859
H     0.6197247635    5.5908080866    0.5207210888
H      2.210692807    4.6893801382    0.7310020293
