13

C    -0.1201525616    1.0686976533    0.2143806918
C     0.0406182999   -0.4006636636   -0.0403127653
O     -0.439011809    -1.293991322    0.6216702669
C      0.900509453   -0.8258139306   -1.2394935786
O     1.5720088234   -0.0731708614   -1.8929752689
C     0.8837435983   -2.3549555361   -1.5024452694
O      1.848160188    -3.052079139   -1.3305919616
C    -0.4216100015   -2.8975526396   -2.0794224166
O    -1.3081871416   -2.1532233849    -2.408506961
H    -0.6815210756    1.5182817438   -0.6129684915
H    -0.6483378339    1.2322660561      1.15371044
H     0.8589073185    1.5573224992    0.2246545919
H     -0.460616068   -4.0000929852   -2.1850741978
