15

O    -0.0271650751   -0.0445659389    0.0020857558
C     0.0491974659    1.1918156302    0.0066346745
O      0.987695941    2.0103209693    0.0036353311
C    -1.3260538781    1.8977851187     0.018635783
C     -2.569060061     1.356209442     0.026155893
C     -3.522988651    2.4259460331    0.0364436466
N    -4.8541120136    2.3016392912    0.0458528716
H    -5.2648923706    1.3841156259    0.0460273699
H    -5.4748910285    3.0928776398    0.0527738774
N    -2.8899294543    3.6017851343    0.0352707074
C     -1.439570712     3.387886732    0.0239902363
H     -2.796536475    0.3005297797    0.0245362645
H    -3.3421794729    4.5013637523    0.0411882741
H    -0.9535641353    3.8197323345    0.9044388358
H    -0.9664720394    3.8253454761    -0.860721671
