15

O     0.0582852505   -0.0731017342    0.0049939626
C      0.098962299    1.1642885645    0.0072430797
O      1.019561312    2.0038026705    0.0025519264
C    -1.2934635846    1.8411030131    0.0184617069
C    -2.5137089317    1.3013026586    0.0253838268
N     -3.504438972    2.3531953827    0.0352552615
C    -2.9319655371    3.5413586735    0.0345138159
N    -3.5784386855    4.7076013085    0.0421471041
H    -4.5831667778    4.7760010931    0.0492558446
H    -3.0535185056    5.5655406079     0.040965254
C    -1.4465931904    3.3419415768    0.0237452425
H    -2.8319479535    0.2720378834    0.0247404238
H    -4.5029241891    2.1950392643    0.0417797249
H    -0.9612231342    3.7945032055     0.895792522
H      -0.97333565    3.7995080518   -0.8523399058
