15

O    -0.0967417829   -0.0515983965    0.0261995184
C     0.0188611171    1.1727585904    0.0028148944
O     0.9714461239    1.9662468853   -0.0714736157
C    -1.3685853782    1.9508771305    0.0936634102
C     -2.588810832    1.2269262502    0.4582088314
N    -2.3851522485    1.6145957023   -0.9958360026
C     -2.889913873    2.8022118445   -1.3741457479
N    -2.3429426813    3.8547042678   -0.8135482019
H    -2.5667105685    4.8072802047   -1.0678218624
C    -1.2890740363    3.4679830868    0.1463988863
H    -2.4705791237    0.1565655325    0.5858185274
H    -3.4176345301    1.7178897406    0.9630752378
H    -3.6570463212    2.8949923621   -2.1364083362
H    -1.4767762726     3.924945834    1.1216151576
H    -0.2849330227    3.7352695948   -0.2069551468
