15

C    -0.5758346674    1.6721772834    -0.164441295
C    -0.0959962765    0.2282531322    0.0589271786
O     0.5552069137    0.1017326528    1.2925167408
C    -1.2588656599   -0.7438128403   -0.0117914231
O    -1.5468924182   -1.4718846505    0.9108778805
C    -2.0369598539    -0.871885853   -1.3259206872
O    -1.4772392508   -0.9740585583   -2.3903349287
C    -3.5694069115   -0.8860731643   -1.2567576037
O    -4.1804302804   -0.4480229921    -0.321430726
H     0.2804187348    2.3424794877   -0.0632864677
H    -0.9996145222    1.8037048674   -1.1647212612
H    -1.3228122068    1.9501043898    0.5844825032
H     0.5838587954   -0.0426149729   -0.7663821804
H      0.083417476   -0.5882135259    1.7837983119
H    -4.0413956021   -1.2662738463    -2.186536192
