16

O     0.3429820131   -0.0294840261   -0.0822681033
C     0.3055467616    1.1699034011   -0.0098932172
C     1.3554272521     2.096848848   -0.6038748231
N     0.7695695307    3.3953027253   -0.9178326212
C     1.7266587444    4.4476054481   -1.1876573382
C      2.407720262    4.3642953246   -2.5484870056
O     2.0814119626    3.5874902045   -3.4156930614
C     3.5478660792    5.3511947886   -2.8311437426
O     3.9496355008    6.1378826915   -2.0146963075
H    -0.5101356002    1.7092341753    0.5227157441
H     2.1105794472    2.2439597212    0.1830902953
H     1.8527306322    1.5837822548   -1.4391630072
H     0.1578407765    3.2978348569   -1.7230210468
H     1.2346477122    5.4307880344   -1.1408991882
H     2.4934972945    4.4796802635   -0.4052039033
H      3.962684531    5.2600500084   -3.8570284037
