13

O     0.1957834444    0.0952634346    0.2017949259
C     0.0424858657    1.3287543411    0.0690193055
C    -1.1661951562    2.0317082291   -0.0241529595
O    -1.2431885637    3.3765762923   -0.1679156105
C    -0.1588798887    4.1232133458   -0.2304010464
C     1.0995538783    3.5843915723   -0.1539613315
C     1.2336994036    2.1985570572   -0.0049476909
N     2.3733668828    1.5136074538    0.0852901787
H     3.2872879318    1.9270486279    0.0552696363
H     2.2280049565    0.5116613094    0.1892651185
H    -2.1403842056    1.5673447032    0.0099513457
H    -0.3800336053    5.1754509927   -0.3453506024
H     1.9602545465    4.2414033806   -0.2103850792
