15

O     0.3848510441    0.4070953776   -1.1567450083
C     0.3598771627    1.5564465579   -0.8067274068
C     1.4834316882    2.1996385702    0.0015666334
O      1.369419302    3.6113314631    0.0562597422
C     2.2645876791    4.3345717698   -0.7362242241
C     2.0213351583    4.2114641202   -2.2314730335
O     1.2196031109    3.4620074867   -2.7359492968
C     2.8779399137    5.1039712067   -3.1389234083
O     3.6995505004    5.8717850984   -2.7120876122
H    -0.4976972282    2.2329276662   -1.0009085023
H     1.4028585087    1.8245559823    1.0312881155
H     2.4518674756      1.86689786    -0.392389389
H     2.1744628317    5.3908223341   -0.4577772324
H     3.3166077448    4.0613924968   -0.5434134198
H     2.6594849279      4.96696493   -4.2183116677
