15

O     1.6596329177    0.6114851519    0.8819422375
C      1.505615027    1.2327686375   -0.0878048544
O     1.4258915944    1.8507387299   -1.0726122876
C    -1.4843182047    1.5806738381    0.1836243194
C    -2.7188378721    1.5196875767    1.0140352935
N    -3.8870511015    2.0972100309    0.3367725519
C    -3.4819653949    2.4702188564    -0.819790891
N    -4.2943054007    2.9917173769   -1.7919782125
H    -5.2056669139    3.2934176646   -1.4799129025
H    -3.8684360011     3.586359094   -2.4844121115
C     -2.001763479    2.2060542701   -1.0685680606
H    -2.8759148235    0.4614374849      1.29349951
H    -2.5193559671    2.0003886619    1.9873407668
H    -1.4005613623    3.0959162176   -1.3104454211
H    -1.8028821084    1.5273576785   -1.9130392378
