12

N    -0.0237952514     1.313479309   -0.0499215545
C    -0.0205126251   -0.0043869219    0.2447068128
O      0.836287521     -0.61858633    0.8456651821
C    -1.2945042764   -0.7230287612   -0.2216538525
O    -2.3197300669   -0.1458079898   -0.5013729888
C     -1.248337996   -2.2503131999   -0.3419882683
O    -0.3955593864   -2.7967204753   -0.9871619977
C    -2.4456470766   -3.0161550005    0.2721086706
O    -2.5162452296   -4.2103981132    0.2025565691
H     0.7215976855    1.9000309262    0.2879745567
H    -0.8474354168    1.7295141949   -0.4538639176
H    -3.2027932913   -2.3927420982     0.788415318
