15

C    -2.1115185747    0.6548152819   -0.3312378015
C    -1.0380978505   -0.3700118113   -0.2201796693
N     -0.811351645   -0.9630590604    0.9739325527
H    -1.5144540138   -0.8998032308    1.6896319294
H    -0.1346318308   -1.7040617091    1.0675472349
N    -0.2807907977   -0.6637062585   -1.2549330681
C    -0.2049611573    0.0677501838   -2.4731105916
C    -0.1148121725    1.4587638648   -2.3962261066
N    -0.0763343689    2.6150150855    -2.241395799
C    -0.0576301908   -0.6860540592   -3.6418619964
N     0.0735857073   -1.3641127817   -4.5805872523
H    -1.6968581799    1.6697290018   -0.3212987019
H    -2.6106216682    0.5383969163   -1.2979798722
H    -2.8303017556    0.5498376842    0.4847313528
H     0.3592258784   -1.4484259374   -1.1586261108
