19

C     0.1583503129     1.517315196    0.0958469269
C     0.0587468857    0.0231928525    -0.033065659
C     0.0630979965   -0.9065376454    1.1670833639
C      1.224646965   -0.9136433081    0.2046878058
C     0.6961613338   -2.1458281587   -0.5410543043
C    -0.1017891704   -1.6425776688   -1.7112248153
C    -0.8345623826   -0.6459407299   -1.1005931777
C    -1.8175881666   -1.5472013781   -0.3001945977
C    -0.5942232061   -2.1538641712    0.5426281658
H     0.8231609254     1.797698081    0.9205796886
H     0.5523585707    1.9693449703   -0.8211327091
H      -0.82251225    1.9660142709    0.2903953379
H    -0.0032891936   -0.5690634572    2.1947740179
H     2.2572326378   -0.6192399036    0.3422134301
H      1.304701827   -3.0454909078   -0.6226025914
H    -0.5844692121   -2.3635226511   -2.3711407779
H    -2.5213503071   -1.0245731099    0.3574662503
H    -2.3518961771   -2.2844993089   -0.9024709886
H    -0.7691124994   -3.0146635419    1.1946227938
