18

C     0.0213087297    1.4829993364    0.0622502574
C    -0.0310112708   -0.0060045243    -0.071868068
C     0.6716177831   -0.8542953843   -1.0633049513
N     1.0582145539   -0.9250188285    0.3884279323
C     0.0433845735    -1.953676038    0.7952387955
C     -0.106642907   -2.9289329149   -0.3318424043
C    -0.2276077152   -2.0543895293   -1.3916871034
C    -1.6739491038   -1.5511624201   -1.0838971665
C    -1.1914144423   -0.9509792495    0.3193280505
H     1.0052515547    1.8568141409   -0.2375376461
H    -0.7320770513    1.9596149759   -0.5757359219
H     -0.161370158    1.7993458606     1.094998755
H     1.4249676298   -0.4732340865    -1.742012162
H     0.1083510854   -2.2719146019    1.8346734684
H    -0.7921783652   -3.7672213129   -0.2143335761
H    -2.0502509365      -0.7607527   -1.7428268411
H     -2.419618119   -2.3434846838   -0.9950965533
H    -1.9366966211   -0.5716105794    1.0233495651
