17

O     0.0014899255    1.3593951325    0.1164016232
C     0.0397420811   -0.0162724401    0.0259344392
C    -1.0777452727   -1.0054819573    0.1555753984
C    -0.3442453715   -0.8468200122   -1.1759880143
C     0.6680145346   -1.9971302139   -1.2943782876
C     0.3317998729   -2.9386634924   -0.3398229457
C    -0.1601484083   -2.0663858734     0.779182136
C     1.0955642081   -0.9549393473    0.6642934516
C     1.9574796135   -1.4629901192   -0.5850148281
H     0.4526764056    1.7322081438   -0.6487090879
H    -2.1402688031   -0.8706982673    0.3055251244
H    -0.8385020693   -0.3941248097   -2.0265827685
H     1.0001153248   -3.7684632442   -0.1117530832
H    -0.3897436737   -2.4831634583    1.7584089876
H     1.5978817765   -0.5883656677    1.5632328847
H      2.689010089   -2.2337770489     -0.33675498
H     2.4622221369   -0.6276640644   -1.0843825598
