14

O    -0.0797688034    1.3985298762    0.0628023644
C     0.0482816476    0.0347459341    0.0076140882
C    -1.0312317706   -1.0099480494    0.1672670561
C    -0.2941289899   -0.8778671102    -1.150178921
C      0.723159634   -2.0330673954   -0.8618798354
N     0.3496984526   -3.1225547131   -0.3027422399
C    -0.0265499295   -2.0522911733    0.7515755421
C     1.1556908399   -0.8555582518    0.6290844631
O     1.9418820365   -1.3858759864   -0.4447159532
H     0.5617709075    1.7950816066   -0.5383765173
H    -2.0959899732   -0.9190389694    0.3269621521
H     -0.701818434   -0.5907140004   -2.1052275725
H    -0.1409660952   -2.5784179286    1.6924607529
H     1.7604680777   -0.5604110389    1.4814748204
