14

O    -0.1208606218    1.3788844403    0.1543477783
C     0.0237815883    0.0291403381     0.012366083
C     -1.044217248   -1.0362411746    0.0509351917
C    -0.2078930087   -0.8344437806   -1.2075474223
C      0.953947327   -1.8229996416   -0.8945846041
N     2.0862880234   -1.4040000653   -0.4675107632
C     1.1091514421   -0.9184882018    0.6359518378
C    -0.1163459264   -2.0744293888    0.7198437739
O     0.3316890428   -2.9801519265   -0.2799091419
H     0.6143491195    1.8125853771   -0.2960899315
H      -2.12185774   -0.9617139557    0.0941299453
H    -0.5698365351   -0.5346274748   -2.1766568875
H     1.7031745102   -0.7067967662    1.5189495469
H    -0.3482298033   -2.5706856294    1.6565622334
