17

C    -0.0453543524    1.5574561884    0.0129503728
C    -0.0283420204    0.0169495072   -0.0143014735
C    -1.4655999984   -0.5383129623   -0.0277238498
C      0.801841842   -0.5234128225   -1.1599778148
C       1.86809687   -1.2530842462   -0.7948051716
C     1.9580144794   -1.3425134979    0.6729575978
O     2.7710797955   -1.9069186263    1.3621597592
C     0.7396618257   -0.5271177043    1.2018500707
O     0.4616108126   -0.3611793482    2.3577465214
H     0.9678046379    1.9702405514    0.0189516991
H    -0.5693574053    1.9528854835   -0.8634954433
H    -0.5617181659    1.9042508569    0.9123490706
H    -2.0112647033   -0.1748054136    -0.904770764
H    -1.4733824333   -1.6320749791     -0.05099366
H    -1.9952465118   -0.2111702935    0.8713133796
H       0.52385328   -0.3150238636   -2.1897257864
H     2.5828441677   -1.7245964797   -1.4571791577
