17

C     0.7995937614    0.8004858608    -0.211367131
N    -0.3523513433   -0.0561305325    0.0217635026
C    -0.2600319123     -0.83382422    1.2463492938
C    -1.6220330268    0.6446858205   -0.1513341308
C    -1.8947844595    0.5484877364   -1.6408276658
O    -1.6644877152    1.4116598932   -2.4556324842
C    -2.4330217104   -0.8014947199   -2.1358532344
O    -2.8869932865   -1.6477583844   -1.4111880553
H     1.7099427672    0.1942249746   -0.2412830329
H     0.6959716988    1.3117925587   -1.1723046378
H     0.9223996308    1.5713518479    0.5719306243
H    -0.2795704281   -0.2108250824    2.1595097499
H    -1.0879119655   -1.5463696052    1.2927584117
H     0.6760441953   -1.4008642392    1.2462802019
H    -2.4063012511    0.1114870265    0.3902656807
H    -1.6009482282    1.6951321132     0.174966156
H    -2.4136904564   -0.8899506682   -3.2430940989
