18

N     0.0990121573    1.4112831763    -0.023826952
C     0.1117573739   -0.0467947598    0.0011465394
C    -1.3333605495     -0.60276442    0.1255081105
C    -2.1233815595   -0.0241554931    1.3854867529
O    -1.9672848874     1.210626336    1.5790631339
O    -2.8051740958   -0.8564136074    1.9771137066
C     0.6648903494   -0.5407511199   -1.3208387532
N     0.7485254344    0.3689296859   -2.2600561869
N     0.9972918773   -1.8162576899   -1.4877611929
H     1.2409042444   -2.2035273407   -2.3849431116
H     0.8161693003   -2.4644670542   -0.7371795398
H     0.9227554521    1.7771186581    0.4441255027
H    -0.7437445855    1.6551904085    0.5683152041
H     0.7243480366   -0.4774789684    0.8072396399
H    -1.8951958629   -0.3244174181   -0.7752283981
H    -1.3212521912   -1.6925308944    0.1998905726
H     0.4571469548     1.290124709   -1.8748853356
H     0.9806036112    0.1923662121   -3.2235408223
