18

C    -0.0365526837    1.4668689841    0.0043984745
C     0.0490296089   -0.0257984706   -0.0015592267
C     0.5035333751   -1.0184284612   -1.0302118744
C     1.2676050781   -0.8848864956     0.276332897
C       0.74087828   -2.0108397506    1.1742314627
C     0.1297811765   -2.9801043205    0.4025053346
C    -0.5290525572   -2.0273171011   -0.5549876816
N    -1.0623605915   -0.8877796192    0.5259900517
C    -0.4927431206   -1.3831038561    1.8638655317
H     0.8692128226    1.9087635817    -0.424124402
H    -0.8988394547    1.8142749693   -0.5735757256
H    -0.1438385887    1.8493819045    1.0260077995
H     0.8916560581   -0.8779100172   -2.0301067444
H      2.274212611   -0.4928252127     0.333136078
H    -0.4713355914   -3.7570537609    0.8710619276
H    -1.3330059835   -2.3650398642   -1.2050331237
H    -1.1613181216   -2.0884066678    2.3556651873
H    -0.3048036375   -0.5160423019     2.502498024
