16

C    -0.3829973955    1.4921778303    0.1009830982
N    -0.0809471896    0.0539444337    0.0354499779
C     0.3217532432   -0.5932634933    1.0927157579
N     0.4824824962   -0.0530754623    2.2943471379
H     0.8354461451   -0.6120828242    3.0524041533
H     0.2656561327    0.9134779172    2.4793028829
C    -0.2671667974   -0.7236342323    -1.205627314
N    -0.4280021789   -1.9636635279   -1.0434277929
C    -0.1684168371   -0.0188996495   -2.6326554471
O    -0.3234566097    -0.852620641   -3.5256694053
O     0.0628197985    1.2025363514   -2.6313009539
H     0.4541628284    2.0233609905    0.5665793958
H    -0.4819322331    1.8281218813   -0.9362230039
H    -1.2966247426    1.6486231231    0.6853433034
H     0.5158194819   -1.6533611616    0.9609100981
H    -0.4854724321   -2.3381575456   -2.0002871382
