18

C    -0.0087184649    1.5632901418   -0.0862476914
C     0.0113905827    0.0730503514    0.0634094078
C     0.4370796307   -1.0228348133   -0.8672678873
C     1.1878210736   -0.8118022148    0.4341846179
C      0.615457206   -1.8953980889    1.3586185768
C     -0.580925076   -1.4672167119    1.8999345109
C    -1.0821842916   -0.8271194145    0.6343592887
N    -0.6271940206   -1.9891211006   -0.4675933215
C     0.1410371255   -3.0016170795    0.3948878632
H     0.9115426911     1.918815049   -0.5611472325
H    -0.8508498348    1.8938445364   -0.7044052561
H    -0.0902064339    2.0580897443    0.8878563181
H     0.8636838823   -1.0031101391   -1.8635430324
H     2.2041830064   -0.4462091666    0.4939312195
H    -1.2259782762   -2.1698906366    2.4242373978
H    -2.1344266053   -0.5716949613    0.5239084256
H     0.9065664957   -3.4717714278   -0.2275609641
H    -0.5208618707    -3.747003798     0.833481059
