17

O    -0.1240266825    1.4192974605    0.1785864037
C      0.054365228    0.0624409113    0.0275169732
C    -0.9684633316    -1.025094088    0.1021316905
C    -0.2020749816    -0.773245611   -1.2031517577
C     0.9111661355   -1.8270928214   -1.2955225686
C     1.9297627968   -1.4371355583   -0.4462995833
C     1.1520236669   -0.8106769869    0.6730190381
C    -0.0044349064   -2.0312544101    0.7592196807
C     0.3907707826   -3.0247976173   -0.4409738036
H     0.4393446884    1.8723364618    -0.458759135
H    -2.0479226599   -0.9877371749    0.1724506422
H    -0.7262305184   -0.3768477694   -2.0632218047
H     2.7453044153   -2.1197061017   -0.2087106443
H     1.6280151451   -0.4854116827    1.5964462744
H    -0.2944465743   -2.4484716379    1.7272909879
H    -0.4941054656   -3.5389962641   -0.8306157547
H     1.1547312915   -3.7561967999   -0.1718036188
