12

N    -0.0031595014    1.3028730413   -0.2804495342
C     -0.012665787   -0.0109698323    0.0029083152
N     1.1516413328   -0.6235062642    0.2781292566
H     1.1427267857   -1.6065549282    0.4900729924
H      2.033414261   -0.1393647831    0.2815316672
C    -1.1938125916   -0.7165994928    0.0112246413
C    -2.2458382588   -1.3452370711    0.0179666463
C    -3.5452326323   -2.1225294473    0.0233776708
O    -3.8009121929   -2.5982482046   -1.0853764256
O    -4.0822124956   -2.1217354092    1.1331391646
H     0.8409882408    1.8497646257   -0.2963157225
H    -0.8751247606     1.759483646    -0.486770492
