15

C     0.0460462263      1.57949156   -0.0576263621
C    -0.0417903674    0.0459690894   -0.0771888706
O    -1.3882953689   -0.3876155622    -0.171893356
C     0.7647783238   -0.5709863237   -1.1980866304
C      1.860182049   -1.2305754596   -0.7888587423
C     1.9439817811   -1.2604890926     0.684724235
O     2.7986432712   -1.7212984541    1.3986528151
C     0.6409800452   -0.5627493838    1.1609183996
O     0.1904455389   -0.5510500835    2.2740479133
H     1.0826623099    1.9279229357   -0.0191971202
H     -0.430688973    1.9858363691   -0.9540031308
H    -0.4795327696    1.9608987556    0.8235640933
H    -1.7710318912     -0.30280657    0.7113160808
H     0.4524573062   -0.4491340618   -2.2302874386
H     2.5915489085   -1.7149777982   -1.4234489961
