19

C    -0.0249453362    1.5570705715   -0.0941691163
C    -0.0022333391     0.065224538    0.0438846293
C     0.4596750367   -1.0200013697   -0.8972271369
C     1.1818529585   -0.7988861563    0.4229870488
C     0.6866089542   -1.8778084391    1.4015099386
C    -0.5531998407   -1.4847398737    1.8635252599
C    -1.1107100207   -0.8318088873    0.6295820235
C     -0.604516411   -2.0324008044   -0.4324708038
C     0.2187479494    -3.053658103    0.4952404228
H     0.9041629661    1.9176684955   -0.5485968332
H    -0.8549839682     1.895817853   -0.7250278243
H    -0.1259741497     2.044952481    0.8823068923
H     0.9367749829   -0.9603804775   -1.8682999456
H     2.1894613494   -0.4034371967    0.4453023545
H    -1.1820900868   -2.1773965888    2.4229047305
H    -2.1509617042   -0.5100635988    0.5850195268
H    -1.2877524533   -2.4303554968    -1.188091665
H     1.0036253767   -3.5562112509   -0.0806187396
H    -0.4047859038   -3.7953146663    0.9981340979
