15

C     -0.321160505    1.4275109162    0.3059333675
N     0.1082085915    0.0729662319   -0.0453035704
C    -1.0326667216   -0.8135211595   -0.3440873694
C    -1.4474104996   -1.4349788534    0.9853944081
O    -2.4835561908   -1.9539425741    1.2969925411
C    -0.2000609637   -1.2805812031     1.911602094
O    -0.1265343184   -1.6630063924    3.0466604695
C     0.8470023509   -0.5798123493    1.0523160923
H     0.5604496628    2.0429011318    0.5060774525
H    -0.8520100267    1.8672267183   -0.5430946632
H    -0.9841328266    1.4854392234     1.188747194
H    -1.8545441787   -0.2770774882   -0.8215930765
H    -0.7172584323   -1.6158703541   -1.0278791134
H     1.5361302913   -1.3352127012    0.6457932023
H     1.4407282271    0.1329267637    1.6274580316
