15

N    -0.1418631034    1.4768393033   -0.6146906164
C    -0.0847383774    0.1655520542   -0.3881834893
C     1.0089490028   -0.7421368813   -0.8978335737
N     0.5857161202   -2.1236930234   -0.6827293634
C    -0.5855650208   -2.0425843587   -0.1764308003
O    -1.2590078994   -2.7968708608    0.6661511338
C    -1.2487562055   -1.4225681201    1.4096679555
C    -1.1896520469   -0.5941403582    0.1072478304
O    -2.4300470356   -0.0389686209   -0.2362777006
H     0.5444391717    1.9518680224   -1.1772261291
H    -1.0143941775    1.9500367729   -0.4296948111
H     1.2076415472    -0.516704179    -1.956824159
H     1.9586820285   -0.5842092838   -0.3680205249
H    -0.3401853549   -1.4172987937    2.0255876683
H    -3.0015919691   -0.2761947131    0.5093387699
