10

O    -0.0432087148   -0.0362826429    0.0018228185
C    -0.0441202031      1.16349422    0.0071468867
C     1.2952534275     1.943856058    -0.000509476
O     2.3592358254    1.3778329722   -0.0122466643
C     1.2129436735    3.4758423347    0.0089690164
O     0.1489671267    4.0418597899    0.0215108098
C     2.5523142816    4.2562112755    0.0010103511
O     2.5514041519    5.4559833981    0.0071156734
H    -0.9644975124     1.772844809    0.0176063504
H     3.4726807336    3.6468656056    -0.010582716
