15

C    -0.0657973515    1.5727964572     0.006369042
C     0.0281418612     0.044184138   -0.0103953003
N     0.7620025055     -0.44924378   -1.1918667429
C     1.7745189745   -1.1658131027   -0.8394033598
N     2.6823512883   -1.7307071386   -1.6680612671
C     1.9254956841   -1.3433306018    0.6371462688
O     2.7482426791   -1.9968114549    1.2256512482
C     0.7553795415   -0.5122231469    1.2101600143
O     0.5122782729   -0.3540484098    2.3757143376
H     0.9310548972    2.0233416863     0.036930456
H    -0.5706789341    1.9228792511   -0.8971804746
H    -0.6262232768    1.9049618114    0.8841567519
H    -0.9907848377   -0.3667417948   -0.0299451463
H      2.492479411     -1.76587263   -2.6558992736
H     3.3083385546   -2.4136483843   -1.2736784843
