13

C     -0.146132933    1.4181694131    0.0810575189
N    -0.0255894133   -0.0250939217    0.1239243259
C     0.6411691758   -0.6830685381     1.091893938
O      1.223596793   -0.1868469186    2.0447109434
C     0.6151591455   -2.2069376904    0.8991132607
O     0.0508152954   -2.7315456625   -0.0281817232
C     1.3602838281   -3.0365383605    1.9710361597
O     1.3910906366   -4.2351891577    1.8990462195
H      0.297770253    1.8227083448   -0.8344945727
H    -1.1957034254    1.7265432976    0.1283913239
H     0.3847191772    1.8208840658     0.944670075
H    -0.4489335228   -0.6003171544   -0.5902876439
H     1.8425961899   -2.4580117274    2.7763374647
