18

C    -0.4969812216    1.4291442445    0.2595561719
N    -0.1185253453    0.0338796324    0.1059860069
C     1.2512273303   -0.2771840175   -0.2756529771
C     0.7470246915   -0.6090059811    1.0898789463
C     1.3098494416    0.0995589889    2.3030076612
C     0.3432709658    0.1745743121    3.4647834415
O    -0.8120921128   -0.1798208502    3.4357947994
C     0.8841687401    0.7528574233    4.7818728941
O     2.0166456677     1.130300086    4.9274788414
H     0.3218275062    2.0998713461    0.5681064667
H    -0.8753078691    1.7951513239   -0.7000130429
H    -1.3030947948    1.5012238992     0.995665715
H     1.3799095257   -1.0505263216   -1.0287286508
H     1.9618184834    0.5472981416   -0.3489415116
H     0.4540250673   -1.6372453286    1.2947803626
H     2.2178385289   -0.4065855573    2.6575342031
H     1.6441181452     1.120192329    2.0826561282
H     0.1158716199    0.7849041893    5.5831776942
