14

C    -0.4666059635    1.3994510179   -0.2420723567
C    -0.2325761735   -0.1067370023   -0.3159781983
C      0.840772178   -0.4992706912   -1.3003305405
O     1.4395053447    0.2584279282   -2.0252985384
C     1.2683153338    -1.977840874   -1.3116264772
O     1.4304762571   -2.6110096227   -0.2960277943
C     1.5270424759   -2.6484574459   -2.6680121738
O     1.0164384411   -2.2781520205   -3.6890269633
H     0.4381709266    1.9192333697    0.0834363803
H    -0.7401759172    1.8008602148   -1.2210807305
H    -1.2690932625    1.6279658187    0.4637381803
H     0.0441321509   -0.5374339427    0.6547606046
H    -1.1476757168   -0.6434794502   -0.6084459524
H     2.1547947254   -3.5609117098   -2.5845918597
