12

O     0.0052619398      1.42523862     0.009788588
C    -0.0027361352    0.0254171886    0.0024584922
C    -1.4370155231   -0.4618975683    0.0129167914
O    -2.4072170665    0.2554291443    0.0255550301
C    -1.6115468371   -1.9900086057    0.0063921634
O    -0.6652764794   -2.7360317506   -0.0061595611
C    -3.0657896366   -2.5247228167    0.0169785436
O     -3.277389872   -3.7066905173     0.013714476
H     0.9207199584    1.7195568542    0.0025427804
H     0.4866172169   -0.4141511741   -0.8832943155
H     0.5025527536    -0.423427024    0.8745174718
H    -3.8645069888   -1.7633603406    0.0273842798
