15

O     0.3364174317    1.2806154082   -0.4172288558
C     0.0956173829   -0.0768591746   -0.1537594768
C     0.7351588064   -0.6100744723    1.1531075891
C     -0.084522701   -1.8337241116    1.5296771572
O     0.2088784757   -2.7458953387    2.2520313331
C    -1.4361864057   -1.7318461875    0.7529892928
O    -2.3291828012   -2.5331356486    0.7886704028
C     -1.403091353   -0.4056060454   -0.0147525658
O    -1.9318351423    0.5937184597    0.8633673904
H     -0.280565734    1.7799443614    0.1334658347
H     0.4951369086   -0.6380569213   -1.0062456015
H     1.8003927622    -0.832202019    1.0721153772
H      0.606799433    0.1361568444    1.9477165284
H    -1.9417500049   -0.4384350261   -0.9670854251
H    -2.8708681884    0.4211792415    0.9923487794
