16

C    -0.8412571291    1.2343924222    0.0935771865
C     0.4405394128    0.4881036653    0.1481387534
O     1.1752344034    0.5484059636   -0.9873498766
C     2.3449526528   -0.0404394708   -1.1432698516
N     2.9503168751    0.2266074803   -2.3547488816
H     2.3130779593    0.5177633856   -3.0829385861
H     3.6040854197   -0.4766956228   -2.6651631833
C     2.8767970832   -0.7841582065   -0.0976913171
C     2.1680452996   -0.8880991139    1.0796172667
C     0.8805504166   -0.2502013456    1.2963685133
O     0.2218732159   -0.3269046445    2.3477377119
H    -0.6877857746    2.3022278546   -0.1063964747
H    -1.5113956415    0.8482961933   -0.6851764027
H    -1.3175789509    1.1136302422    1.0678395785
H     3.8405462533   -1.2632234537   -0.2303727593
H     2.5658985745   -1.4686015591    1.9061539526
