16

C     0.2436141642    1.5627101693    0.1135922115
N     0.1448482701    0.1241338329   -0.0070239497
C       0.44005728   -0.6796022567    1.0411947351
N     0.8148439425   -0.2241567342    2.1769493224
N     0.2972584633   -2.0722239137    0.7701900668
C    -0.0857216159   -2.6948747865   -0.3716530245
O    -0.3976528175   -2.1876065424   -1.4376243275
C    -0.1036145457   -4.2209960935   -0.2245607147
O     0.1912810363   -4.7884872137    0.7943774292
H     1.2634098233    1.8709959426    0.3680800569
H    -0.0381482029    2.0101450659   -0.8414063039
H    -0.4202972009    1.9418157873    0.8979431497
H    -0.1420926153   -0.3114696503   -0.8702895881
H     0.9940167493   -0.9659928204    2.8481045286
H     0.5100935425   -2.7011738376    1.5347097788
H    -0.4153605932   -4.7369329692   -1.1525060807
