15

N     0.0147392173    1.3390001969    0.0097994798
C    -0.0045989138    0.0065004479    0.0019176376
N     1.0406273286    -0.745230778   -0.0124754537
H     2.0266467041   -0.3963427625   -0.0196066741
C     1.1150053272   -2.2112350343   -0.0217634003
C     2.6400512781   -2.5129034353   -0.0369035382
O     3.3922167278   -1.5589229898   -0.0386244615
C     2.9501173696   -4.0606685193    -0.048310844
O     4.1366784483   -4.3721495323   -0.0587669943
O     1.8664748945   -4.6860851736   -0.0441402995
H     0.8801837877    1.8569159756    0.0048382486
H    -0.8448830717    1.8602975762    0.0209976957
H    -0.9849228691   -0.4627919966     0.008275174
H     0.6598213198   -2.6542389226    0.8645039339
H     0.6446479917   -2.6437760822   -0.9052744941
