14

N     0.0436301556    1.3330429776   -0.1036145927
H     0.2333468283    0.3780619982   -0.4235899141
H     0.9229613576    1.8448416939   -0.0023811104
H     -0.511029265    1.8288809363   -0.8049753558
C    -0.7512039749    1.4382452305    1.3143746419
C    -0.9393553673    2.7996342163    1.6234908428
C    -0.9245762132    4.0280903027     1.572956303
C    -0.9088971654    5.3567962441    1.5187048383
C    -0.8347548975    6.5749707956    1.3622415205
C    -0.6963975077    8.0498106961    1.0859829786
O    -1.1819329135    8.7931505144    1.9384962479
O    -0.0970081977    8.2196266718    0.0119878118
H    -1.6619271401    0.8600836913    1.1249633181
H    -0.1038709392    0.8774348213    1.9970259803
