  48

 N         -0.8712348255       -0.1205054860       -0.8847789864
 C         -0.2987083651        1.0819952544       -0.6386644183
 C          0.4405253506        0.9775338396        0.5110015032
 C          0.2982747704       -0.3375099261        0.9761725720
 C         -0.5262663832       -1.0124511037        0.0929460644
 C         -0.9665896500       -2.3894760558        0.1006500230
 C         -0.7763518766       -3.1886457981        1.2400335929
 C         -1.1300960782       -4.5131504874        1.2513695843
 C         -1.6949661968       -5.1382193964        0.1277843619
 C         -1.9867066309       -4.3095892225       -0.9830269324
 C         -1.6045976290       -2.9718205509       -0.9881622921
 C         -2.7159308084       -4.8863292719       -2.0767308971
 C         -3.1849569401       -4.4041358379       -3.2719346352
 O         -3.8823900115       -5.3522302098       -3.9178112920
 C         -3.8812621281       -6.4593791625       -3.1606847886
 C         -3.1744276941       -6.2402447915       -2.0075597515
 C         -2.8230239701       -7.0833686822       -0.9053040275
 C         -3.2371859008       -8.3974522540       -0.8007502887
 C         -4.9912357956      -13.3177914719        0.0988816780
 C         -5.4704868706      -14.5275280198        0.4714539673
 N         -5.1190286891      -14.7196382028        1.7873393451
 C         -4.4292740931      -13.6387274544        2.2279490540
 C         -4.3196140910      -12.7202877561        1.1930761582
 C         -3.6561702927      -11.4529406926        1.2368401710
 C         -3.6091451053      -10.6197747231        0.1824815257
 C         -2.9719670545       -9.3328917241        0.1335421628
 C         -1.9401952897       -8.8831665681        1.0427395866
 C         -1.1552397327       -9.5373011715        1.9599398452
 O         -0.2710694963       -8.6905048306        2.4984712020
 C         -0.4610516478       -7.4798027414        1.9594491843
 C         -1.4855282091       -7.5085839588        1.0373357874
 C         -2.0085249864       -6.5460670543        0.1114869876
 H         -1.4843511786       -0.3208351662       -1.6561483466
 H         -0.4526064036        1.9196395628       -1.2903276822
 H          1.0191773354        1.7558030054        0.9676039518
 H          0.7630176999       -0.7450538487        1.8514359857
 H         -0.3549837479       -2.7447148509        2.1281161268
 H         -1.0135348492       -5.0764920483        2.1614247761
 H         -1.8185470143       -2.3965948042       -1.8769398731
 H         -3.0964819023       -3.4530260271       -3.7576348537
 H         -4.3969113782       -7.3215523546       -3.5328009926
 H         -6.0248167497      -15.2660046097       -0.0710090945
 H         -5.3405990676      -15.5318215130        2.3408590473
 H         -4.0553118334      -13.5783874720        3.2319223224
 H         -3.2097734121      -11.1795620291        2.1821445449
 H         -4.1329772361      -10.9136834415       -0.7183009764
 H         -1.0982198093      -10.5619105637        2.2649906087
 H          0.2290758684       -6.7186783267        2.2606884082
