48

N         -1.00020       -0.04019       -0.54225
C         -0.24105        1.08856       -0.37678
C          0.92792        0.72747        0.25131
C          0.86467       -0.65981        0.49095
C         -0.33416       -1.12268       -0.01898
C         -0.87489       -2.46694       -0.00849
C         -0.54996       -3.31148        1.01484
C         -1.03561       -4.63355        0.97838
C         -1.80490       -5.33973       -0.03685
C         -2.11765       -4.40185       -1.01408
C         -1.68294       -2.98364       -1.01830
C         -2.86706       -5.13341       -1.94628
C         -3.37179       -4.43372       -3.04542
O         -4.13925       -5.32299       -3.71852
C         -4.10334       -6.56932       -3.11778
C         -3.25257       -6.77327       -2.03480
C         -2.95760       -8.23068       -1.15543
C         -3.32305      -10.11695       -0.88544
C         -3.69871      -12.03083       -0.63476
C         -4.09971      -13.67283       -0.08178
N         -4.56665      -14.24671        1.42683
C         -4.27713      -13.16812        2.09788
C         -3.97029      -12.27648        1.04916
C         -3.80159      -11.19826        1.74507
C         -4.30241      -10.36163        0.82207
C         -3.21613       -9.80452        0.35820
C         -2.46173       -8.87923        1.22866
C         -1.88694       -9.31380        2.38235
O         -1.15334       -8.41238        3.00817
C         -1.21800       -7.32030        2.20413
C         -1.91603       -7.61092        1.01585
C         -2.23363       -6.96725       -0.17783
H         -1.91621       -0.08207       -0.97024
H         -0.58195        2.05585       -0.71775
H          1.73913        1.39158        0.51159
H          1.61953       -1.26989        0.96998
H          0.09171       -2.99949        1.84374
H         -0.66544       -5.13168        1.84039
H         -1.91851       -2.31897       -1.84998
H         -3.32041       -3.40451       -3.47982
H         -4.75633       -7.23676       -3.62199
H         -4.26473      -14.73853       -0.44533
H         -4.88278      -15.16909        1.90053
H         -4.41940      -13.07641        3.19306
H         -2.82269      -11.41902        2.16558
H         -5.07329      -10.64563       -0.06875
H         -1.89750      -10.25913        2.84302
H         -0.63768       -6.56167        2.71745
