
     RDKit          3D

  5  3  0  0  0  0  0  0  0  0999 V2000
    1.2029   -0.6600    0.1008 O   0  0  0  0  0  1  0  0  0  0  0  0
   -0.0000    0.0325    0.0953 C   0  0  0  0  0  0  0  0  0  0  0  0
   -0.0016    1.2902    0.0679 O   0  0  0  0  0  0  0  0  0  0  0  0
   -1.2012   -0.6627    0.1201 O   0  0  0  0  0  1  0  0  0  0  0  0
    0.0000    0.0000    0.0000 Mg  0  0  0  0  0 15  0  0  0  0  0  0
  1  2  1  0
  2  3  2  0
  2  4  1  0
M  CHG  3   1  -1   4  -1   5   2
M  END
$$$$
