
     RDKit          3D

 26 26  0  0  0  0  0  0  0  0999 V2000
   -5.0272   -2.8586   -0.1641 N   0  0  0  0  0  0  0  0  0  0  0  0
   -3.9686   -2.8218   -0.5282 N   0  0  0  0  0  4  0  0  0  0  0  0
   -2.6863   -2.7775   -0.9694 N   0  0  0  0  0  0  0  0  0  0  0  0
   -1.7678   -1.8108   -0.4559 C   0  0  0  0  0  0  0  0  0  0  0  0
   -0.4896   -1.7824   -0.9141 N   0  0  0  0  0  0  0  0  0  0  0  0
    0.3913   -0.8686   -0.4339 C   0  0  0  0  0  0  0  0  0  0  0  0
    1.7332   -0.8559   -0.9363 N   0  0  0  0  0  2  0  0  0  0  0  0
    2.8045    0.0633   -0.5438 C   0  0  0  0  0  0  0  0  0  0  0  0
    2.4484    1.5122   -0.8912 C   0  0  0  0  0  0  0  0  0  0  0  0
    3.1593   -0.0973    0.9376 C   0  0  0  0  0  0  0  0  0  0  0  0
   -0.0120    0.0200    0.5105 N   0  0  0  0  0  0  0  0  0  0  0  0
   -1.2875   -0.0026    0.9697 C   0  0  0  0  0  0  0  0  0  0  0  0
   -2.1650   -0.9178    0.4879 N   0  0  0  0  0  0  0  0  0  0  0  0
   -1.8111    1.1748    2.2098 S   0  0  0  0  0  0  0  0  0  0  0  0
   -2.3042    2.4216    0.9802 C   0  0  0  0  0  0  0  0  0  0  0  0
   -2.3722   -3.4601   -1.6945 H   0  0  0  0  0  0  0  0  0  0  0  0
    3.7066   -0.2086   -1.1336 H   0  0  0  0  0  0  0  0  0  0  0  0
    2.1559    1.5837   -1.9604 H   0  0  0  0  0  0  0  0  0  0  0  0
    1.6126    1.8861   -0.2646 H   0  0  0  0  0  0  0  0  0  0  0  0
    3.3300    2.1674   -0.7255 H   0  0  0  0  0  0  0  0  0  0  0  0
    2.3347    0.2521    1.5923 H   0  0  0  0  0  0  0  0  0  0  0  0
    3.3697   -1.1644    1.1625 H   0  0  0  0  0  0  0  0  0  0  0  0
    4.0686    0.4956    1.1740 H   0  0  0  0  0  0  0  0  0  0  0  0
   -1.4281    2.7179    0.3658 H   0  0  0  0  0  0  0  0  0  0  0  0
   -2.6932    3.3167    1.5072 H   0  0  0  0  0  0  0  0  0  0  0  0
   -3.1021    2.0151    0.3239 H   0  0  0  0  0  0  0  0  0  0  0  0
  1  2  3  0
  2  3  1  0
  3  4  1  0
  4  5  2  0
  5  6  1  0
  6  7  1  0
  7  8  1  0
  8  9  1  0
  8 10  1  0
  6 11  2  0
 11 12  1  0
 12 13  2  0
 12 14  1  0
 14 15  1  0
 13  4  1  0
  3 16  1  0
  8 17  1  0
  9 18  1  0
  9 19  1  0
  9 20  1  0
 10 21  1  0
 10 22  1  0
 10 23  1  0
 15 24  1  0
 15 25  1  0
 15 26  1  0
M  CHG  2   2   1   7  -1
M  END
$$$$
