
     RDKit          3D

 26 26  0  0  0  0  0  0  0  0999 V2000
   -2.7737    0.2214    0.2699 O   0  0  0  0  0  0  0  0  0  0  0  0
   -1.3924    0.1058    0.1324 C   0  0  0  0  0  0  0  0  0  0  0  0
   -0.8290   -0.9947   -0.5295 C   0  0  0  0  0  0  0  0  0  0  0  0
    0.5596   -1.0988   -0.6608 C   0  0  0  0  0  0  0  0  0  0  0  0
    1.3924   -0.1058   -0.1324 C   0  0  0  0  0  0  0  0  0  0  0  0
    0.8290    0.9947    0.5295 C   0  0  0  0  0  0  0  0  0  0  0  0
   -0.5596    1.0988    0.6608 C   0  0  0  0  0  0  0  0  0  0  0  0
    2.7737   -0.2214   -0.2699 O   0  0  0  0  0  0  0  0  0  0  0  0
    2.6684   -0.0472    0.0499 O   0  0  0  0  0  0  0  0  0  0  0  0
    1.4098   -0.0249    0.0264 C   0  0  0  0  0  0  0  0  0  0  0  0
    0.6918    1.2633   -0.0325 C   0  0  0  0  0  0  0  0  0  0  0  0
   -0.6450    1.2869   -0.0575 C   0  0  0  0  0  0  0  0  0  0  0  0
   -1.4098    0.0249   -0.0264 C   0  0  0  0  0  0  0  0  0  0  0  0
   -2.6684    0.0472   -0.0499 O   0  0  0  0  0  0  0  0  0  0  0  0
   -0.6918   -1.2633    0.0325 C   0  0  0  0  0  0  0  0  0  0  0  0
    0.6450   -1.2869    0.0575 C   0  0  0  0  0  0  0  0  0  0  0  0
   -3.4032   -0.4806   -0.1015 H   0  0  0  0  0  0  0  0  0  0  0  0
   -1.4650   -1.7678   -0.9416 H   0  0  0  0  0  0  0  0  0  0  0  0
    0.9887   -1.9507   -1.1729 H   0  0  0  0  0  0  0  0  0  0  0  0
    1.4650    1.7678    0.9416 H   0  0  0  0  0  0  0  0  0  0  0  0
   -0.9887    1.9507    1.1729 H   0  0  0  0  0  0  0  0  0  0  0  0
    3.4032    0.4806    0.1015 H   0  0  0  0  0  0  0  0  0  0  0  0
    1.2484    2.1919   -0.0556 H   0  0  0  0  0  0  0  0  0  0  0  0
   -1.1671    2.2346   -0.1007 H   0  0  0  0  0  0  0  0  0  0  0  0
   -1.2484   -2.1919    0.0556 H   0  0  0  0  0  0  0  0  0  0  0  0
    1.1671   -2.2346    0.1007 H   0  0  0  0  0  0  0  0  0  0  0  0
  1  2  1  0
  2  3  2  0
  3  4  1  0
  4  5  2  0
  5  6  1  0
  6  7  2  0
  5  8  1  0
  9 10  2  0
 10 11  1  0
 11 12  2  0
 12 13  1  0
 13 14  2  0
 13 15  1  0
 15 16  2  0
  7  2  1  0
 16 10  1  0
  1 17  1  0
  3 18  1  0
  4 19  1  0
  6 20  1  0
  7 21  1  0
  8 22  1  0
 11 23  1  0
 12 24  1  0
 15 25  1  0
 16 26  1  0
M  END
$$$$
