  35

 C          0.9127042255       -0.8707503331       -0.1554766837
 N          0.2312143651       -0.8141466234        0.9336042009
 C         -0.2803919731        0.4105133811        1.1357367902
 C          0.0152588365        1.3439850408        0.1641399253
 S          0.9991280903        0.6058537265       -1.0651413658
 C         -0.3689274682        2.7038203599        0.0798135888
 S         -1.3676640644        3.4866805995        1.2653607950
 C         -1.3428264007        5.0074272864        0.4334673549
 C         -2.0070460955        6.1700229230        0.8766856286
 C         -2.7754914211        6.3742423906        2.0075025077
 N         -3.2791297711        7.5993940417        2.1506250041
 C         -2.9356985786        8.3905921481        1.1597194757
 S         -1.9283878190        7.6418127720       -0.0558176870
 C         -3.3936846042        9.7245401009        1.1654611693
 S         -3.1123115189       10.9842940849        0.0013803722
 C         -4.0503239599       12.1126646707        0.9040875110
 C         -4.5650407137       11.5673268344        2.0507292966
 C         -5.3824780420       12.0172292339        3.1382683606
 C         -5.6238831970       11.0683790700        4.0638129496
 Se        -4.8305137745        9.3804772146        3.7065872664
 C         -4.1824133587       10.2030577170        2.1867426923
 C         -0.5785288885        4.9067921027       -0.7296033984
 N         -0.3563355882        5.9064538347       -1.6004708719
 C          0.3896316915        5.6079997157       -2.6297207078
 C          0.9371296563        4.3146500483       -2.8294619362
 N          0.7394649855        3.3241717805       -2.0033468355
 C         -0.0263452645        3.6002908705       -0.9298381794
 H          1.4041313190       -1.7579376955       -0.5013535946
 H         -0.8743171346        0.6040998592        2.0107002657
 H         -2.9784936470        5.6214428440        2.7483379791
 H         -4.1627524708       13.1107992503        0.5293331144
 H         -5.7615227463       13.0233421738        3.1975026847
 H         -6.2133371376       11.2068312888        4.9528117695
 H          0.5763925883        6.4036463287       -3.3369920217
 H          1.5509398803        4.1043109588       -3.6941374207
