9

O          1.14065       -0.52285        0.17734
C          2.21494        0.07261        0.13046
C          2.99203        0.46636        1.35305
C          3.18475        1.91523        1.33000
N          3.32834        3.06663        1.29663
C          4.25529       -0.26938        1.35807
N          5.25556       -0.85817        1.35351
H          2.66394        0.33570       -0.84507
H          2.40162        0.18904        2.23385
