  10
 
 C          0.9639540353        0.0230585011       -0.0683772543
 C          2.4725003673       -0.0098130203       -0.0921934882
 C          3.1916295006        1.0517748639        0.7036176437
 O          3.0774560566       -0.8482158490       -0.7205504386
 H          0.5723994131        0.8318912726        0.5387490662
 H          0.5976018992       -0.9301600845        0.3100802990
 H          0.5983598169        0.1209961144       -1.0895600469
 H          2.5115404543        1.7269681801        1.2112716975
 H          3.8370188634        1.6170577174        0.0328265950
 H          3.8387995932        0.5663223044        1.4327459265
