10

C          0.96459        0.01197       -0.07654
C          2.46974       -0.00565       -0.08976
C          3.20325        1.04579        0.69918
O          3.08574       -0.85905       -0.73011
H          0.58379        0.83110        0.53809
H          0.59810       -0.93151        0.33604
H          0.59810        0.14433       -1.09774
H          2.50677        1.71914        1.20443
H          3.82559        1.63480        0.02062
H          3.82559        0.55896        1.45440
