  13
 
 O          3.5064767882        0.7111010924        0.4550188978
 C          2.4424638348        0.0275538766       -0.1756940565
 C          1.5916736998        0.9445035183       -0.9252503600
 N          0.9382469525        1.6850724434       -1.5018157329
 C          3.0374190977       -1.0043003020       -1.1267264930
 C          2.1595755598       -1.9447803022       -1.8578844999
 N          2.9250466422       -2.3804109916       -0.7127732517
 H          3.1542047778        1.3504147423        1.0859183894
 H          1.8117634175       -0.5010338725        0.5595605650
 H          3.9468758317       -0.6470899396       -1.6016810549
 H          2.4474085489       -2.2550392338       -2.8553976763
 H          1.0905487183       -1.8949651006       -1.6963473065
 H          3.7317661308       -2.9559659307       -0.9302974205
