13

O          3.50407        0.67264        0.55106
C          2.42692        0.00721       -0.11498
C          1.65232        0.93885       -0.95415
N          1.03358        1.68508       -1.59397
C          2.99863       -0.99356       -1.08030
C          2.12165       -1.96155       -1.84447
N          2.95969       -2.42711       -0.74829
H          3.11718        1.42655        1.02914
H          1.79119       -0.46596        0.64131
H          3.90503       -0.63940       -1.56164
H          2.42160       -2.24267       -2.84713
H          1.05364       -1.96609       -1.66353
H          3.79797       -2.89893       -1.09642
