  11
 
 C          2.0714082749       -0.0236739954       -0.0123821303
 N          0.6392439928       -0.0067997356       -0.0096769765
 N         -0.0755521987       -1.1048878095       -0.0015019687
 C         -1.3354713843       -0.6881652900       -0.0019304285
 C         -1.3232633014        0.7078680421       -0.0107499415
 N         -0.0567745613        1.1035187096       -0.0154570780
 H          2.3915628338       -1.0627648860        0.0005186884
 H          2.4504205417        0.4977456870        0.8671942950
 H          2.4473120338        0.4744153816       -0.9067590151
 H         -2.1567377321       -1.3739074442        0.0039662961
 H         -2.1325984992        1.4078113405       -0.0137517409
