11

C          2.07621       -0.02737       -0.01257
N          0.63480       -0.01466        0.00233
N         -0.07963       -1.15884        0.00713
C         -1.33065       -0.68862       -0.00236
C         -1.31210        0.71200       -0.01154
N         -0.04844        1.14856       -0.00770
H          2.43145       -1.06082       -0.00369
H          2.43465        0.49920        0.87511
H          2.41399        0.47617       -0.92153
H         -2.16899       -1.37052       -0.00374
H         -2.13174        1.41606       -0.02197
