 xtb: 6.5.1 (fef0646)
          06142402593D

 33 39  0     0  0            999 V2000
   -5.9309   -0.7065   -1.2377 C   0  0  0  0  0  0  0  0  0  0  0  0
   -6.5782   -0.2495   -0.1382 C   0  0  0  0  0  0  0  0  0  0  0  0
   -5.6899    0.1739    0.8775 C   0  0  0  0  0  0  0  0  0  0  0  0
   -4.3833    0.0294    0.5315 C   0  0  0  0  0  0  0  0  0  0  0  0
   -4.2209   -0.6333   -1.0626 S   0  0  0  0  0  0  0  0  0  0  0  0
   -3.1636    0.3867    1.3216 C   0  0  0  0  0  0  0  0  0  0  0  0
   -2.4044    1.5210    0.6782 C   0  0  0  0  0  0  0  0  0  0  0  0
   -1.1779    1.0830    0.3699 C   0  0  0  0  0  0  0  0  0  0  0  0
    0.3820    1.7765   -0.4462 Se  0  0  0  0  0  0  0  0  0  0  0  0
    1.1133    0.0458   -0.1623 C   0  0  0  0  0  0  0  0  0  0  0  0
    0.2777   -0.8224    0.4741 C   0  0  0  0  0  0  0  0  0  0  0  0
    0.9319   -2.4453    0.7858 S   0  0  0  0  0  0  0  0  0  0  0  0
    2.3383   -1.9692   -0.1312 C   0  0  0  0  0  0  0  0  0  0  0  0
    3.1818   -2.3319   -1.1008 C   0  0  0  0  0  0  0  0  0  0  0  0
    3.4439   -0.8969   -1.5317 C   0  0  0  0  0  0  0  0  0  0  0  0
    4.5566   -0.2226   -0.7698 C   0  0  0  0  0  0  0  0  0  0  0  0
    5.7954    0.2004   -0.4377 C   0  0  0  0  0  0  0  0  0  0  0  0
    5.7219    0.8316    0.7652 O   0  0  0  0  0  0  0  0  0  0  0  0
    4.4405    0.8011    1.2156 C   0  0  0  0  0  0  0  0  0  0  0  0
    3.6900    0.1562    0.2957 C   0  0  0  0  0  0  0  0  0  0  0  0
    2.4725   -0.4730   -0.3461 C   0  0  0  0  0  0  0  0  0  0  0  0
   -1.0173   -0.3154    0.7871 C   0  0  0  0  0  0  0  0  0  0  0  0
   -2.1611   -0.7336    1.3565 C   0  0  0  0  0  0  0  0  0  0  0  0
   -6.3477   -1.0866   -2.1488 H   0  0  0  0  0  0  0  0  0  0  0  0
   -7.6487   -0.2121   -0.0462 H   0  0  0  0  0  0  0  0  0  0  0  0
   -6.0135    0.5670    1.8250 H   0  0  0  0  0  0  0  0  0  0  0  0
   -2.8407    2.4846    0.4967 H   0  0  0  0  0  0  0  0  0  0  0  0
    3.6033   -3.2586   -1.4329 H   0  0  0  0  0  0  0  0  0  0  0  0
    3.2489   -0.6296   -2.5627 H   0  0  0  0  0  0  0  0  0  0  0  0
    6.7598    0.1639   -0.9024 H   0  0  0  0  0  0  0  0  0  0  0  0
    4.2464    1.2797    2.1536 H   0  0  0  0  0  0  0  0  0  0  0  0
   -3.4799    0.6612    2.3339 H   0  0  0  0  0  0  0  0  0  0  0  0
   -2.3830   -1.7046    1.7562 H   0  0  0  0  0  0  0  0  0  0  0  0
  1  2  2  0  0  0  0
  2  3  4  0  0  0  0
  3  4  2  0  0  0  0
  1  5  1  0  0  0  0
  4  5  1  0  0  0  0
  4  6  1  0  0  0  0
  6  7  1  0  0  0  0
  7  8  2  0  0  0  0
  8  9  1  0  0  0  0
  9 10  1  0  0  0  0
 10 11  2  0  0  0  0
 11 12  1  0  0  0  0
 12 13  1  0  0  0  0
 13 14  2  0  0  0  0
 14 15  1  0  0  0  0
 15 16  1  0  0  0  0
 16 17  2  0  0  0  0
 17 18  1  0  0  0  0
 18 19  1  0  0  0  0
 16 20  4  0  0  0  0
 19 20  2  0  0  0  0
 10 21  1  0  0  0  0
 13 21  1  0  0  0  0
 15 21  1  0  0  0  0
 20 21  1  0  0  0  0
  8 22  1  0  0  0  0
 11 22  1  0  0  0  0
  6 23  1  0  0  0  0
 22 23  2  0  0  0  0
  1 24  1  0  0  0  0
  2 25  1  0  0  0  0
  3 26  1  0  0  0  0
  7 27  1  0  0  0  0
 14 28  1  0  0  0  0
 15 29  1  0  0  0  0
 17 30  1  0  0  0  0
 19 31  1  0  0  0  0
  6 32  1  0  0  0  0
 23 33  1  0  0  0  0
M  END
