  15
 
 C         -2.5523581483       -0.2705471909       -0.0412623696
 C         -1.1423885457        0.0511499064       -0.0312481025
 C          0.0253977656        0.3202524677        0.0004460340
 C          1.4533333369        0.6116379486        0.0011413290
 C          2.2938870462       -0.6650755168        0.0386467086
 C          1.7495690524        1.4582510978       -1.2151631022
 O          2.5843249343        1.2259552101       -2.0454787034
 H         -3.0374825130        0.1457125705        0.8413372749
 H         -2.6848897090       -1.3521755560       -0.0424535594
 H         -3.0208240974        0.1443002472       -0.9335508552
 H          1.6753363777        1.2354724272        0.8795064086
 H          2.0715545835       -1.2819884937       -0.8293656499
 H          2.0775994651       -1.2337929578        0.9395636829
 H          3.3514103379       -0.4113928156        0.0184354473
 H          1.0962001137        2.3505906552       -1.2921745432
