 xtb: 6.7.0 (08769fc)
          08072419483D

 15 14  0     0  0            999 V2000
   -3.3450   -0.3413    0.2393 C   0  0  0  0  0  0  0  0  0  0  0  0
   -1.9395   -0.1098   -0.0109 C   0  0  0  0  0  0  0  0  0  0  0  0
   -0.7796    0.0907   -0.2381 C   0  0  0  0  0  0  0  0  0  0  0  0
    0.6376    0.3457   -0.4633 C   0  0  0  0  0  0  0  0  0  0  0  0
    1.0849    1.6644    0.1680 C   0  0  0  0  0  0  0  0  0  0  0  0
    1.4048   -0.8389    0.0772 C   0  0  0  0  0  0  0  0  0  0  0  0
    2.3055   -0.7897    0.8689 O   0  0  0  0  0  0  0  0  0  0  0  0
   -3.8196   -0.7552   -0.6501 H   0  0  0  0  0  0  0  0  0  0  0  0
   -3.8345    0.5973    0.4982 H   0  0  0  0  0  0  0  0  0  0  0  0
   -3.4641   -1.0424    1.0651 H   0  0  0  0  0  0  0  0  0  0  0  0
    0.8143    0.3671   -1.5486 H   0  0  0  0  0  0  0  0  0  0  0  0
    0.5329    2.4962   -0.2625 H   0  0  0  0  0  0  0  0  0  0  0  0
    2.1491    1.8125   -0.0018 H   0  0  0  0  0  0  0  0  0  0  0  0
    0.9077    1.6416    1.2411 H   0  0  0  0  0  0  0  0  0  0  0  0
    1.0456   -1.8080   -0.3240 H   0  0  0  0  0  0  0  0  0  0  0  0
  1  2  1  0  0  0  0
  2  3  3  0  0  0  0
  3  4  1  0  0  0  0
  4  5  1  0  0  0  0
  4  6  1  0  0  0  0
  6  7  2  0  0  0  0
  1  8  1  0  0  0  0
  1  9  1  0  0  0  0
  1 10  1  0  0  0  0
  4 11  1  0  0  0  0
  5 12  1  0  0  0  0
  5 13  1  0  0  0  0
  5 14  1  0  0  0  0
  6 15  1  0  0  0  0
M  END
