  11
 
 C          1.4375284327        0.0516842413        0.0011854078
 C          0.6881974919        1.2179879921        0.0007142258
 C         -0.6948715848        1.1097663295        0.0031437484
 N         -1.3351669240       -0.0475396037        0.0057791561
 C         -0.6137642095       -1.1560974758        0.0061658356
 C          0.7734905969       -1.1651946962        0.0040217355
 H          2.5178569462        0.0903049980       -0.0006208640
 H          1.1637334156        2.1869851058       -0.0016220769
 H         -1.3251839098        1.9903476122        0.0025735266
 H         -1.1794085075       -2.0795458050        0.0087808276
 H          1.3169782523       -2.0977886983        0.0046784776
