 xtb: 6.7.0 (08769fc)
          08072420163D

 16 16  0     0  0            999 V2000
   -1.2362   -1.4922    0.4055 C   0  0  0  0  0  0  0  0  0  0  0  0
   -1.5548   -0.0704    0.0121 C   0  0  0  0  0  0  0  0  0  0  0  0
   -0.9342    0.5567   -1.1797 C   0  0  0  0  0  0  0  0  0  0  0  0
   -0.6109    1.0129    0.1515 N   0  0  0  0  0  0  0  0  0  0  0  0
    0.6809    0.8897    0.7762 C   0  0  0  0  0  0  0  0  0  0  0  0
    1.7871    0.0382    0.2092 C   0  0  0  0  0  0  0  0  0  0  0  0
    1.7489   -0.7387   -0.7082 O   0  0  0  0  0  0  0  0  0  0  0  0
   -1.2451   -1.5987    1.4902 H   0  0  0  0  0  0  0  0  0  0  0  0
   -0.2640   -1.7983    0.0283 H   0  0  0  0  0  0  0  0  0  0  0  0
   -1.9898   -2.1595   -0.0085 H   0  0  0  0  0  0  0  0  0  0  0  0
   -2.5667    0.2357    0.2683 H   0  0  0  0  0  0  0  0  0  0  0  0
   -1.4982    1.2678   -1.7710 H   0  0  0  0  0  0  0  0  0  0  0  0
   -0.2084   -0.0169   -1.7404 H   0  0  0  0  0  0  0  0  0  0  0  0
    0.5303    0.5555    1.8114 H   0  0  0  0  0  0  0  0  0  0  0  0
    1.0980    1.9057    0.8396 H   0  0  0  0  0  0  0  0  0  0  0  0
    2.7410    0.2178    0.7492 H   0  0  0  0  0  0  0  0  0  0  0  0
  1  2  1  0  0  0  0
  2  3  1  0  0  0  0
  2  4  1  0  0  0  0
  3  4  1  0  0  0  0
  4  5  1  0  0  0  0
  5  6  1  0  0  0  0
  6  7  2  0  0  0  0
  1  8  1  0  0  0  0
  1  9  1  0  0  0  0
  1 10  1  0  0  0  0
  2 11  1  0  0  0  0
  3 12  1  0  0  0  0
  3 13  1  0  0  0  0
  5 14  1  0  0  0  0
  5 15  1  0  0  0  0
  6 16  1  0  0  0  0
M  END
